(PID.TID 0000.0001) 
(PID.TID 0000.0001) // ======================================================
(PID.TID 0000.0001) //                      MITgcm UV
(PID.TID 0000.0001) //                      =========
(PID.TID 0000.0001) // ======================================================
(PID.TID 0000.0001) // execution environment starting up...
(PID.TID 0000.0001) 
(PID.TID 0000.0001) // MITgcmUV version:  checkpoint67p
(PID.TID 0000.0001) // Build user:        estrobac
(PID.TID 0000.0001) // Build host:        r401i0n0
(PID.TID 0000.0001) // Build date:        Wed Mar 11 13:14:14 PDT 2020
(PID.TID 0000.0001) 
(PID.TID 0000.0001) // =======================================================
(PID.TID 0000.0001) // Execution Environment parameter file "eedata"
(PID.TID 0000.0001) // =======================================================
(PID.TID 0000.0001) ># Example "eedata" file
(PID.TID 0000.0001) ># Lines beginning "#" are comments
(PID.TID 0000.0001) ># nTx - No. threads per process in X
(PID.TID 0000.0001) ># nTy - No. threads per process in Y
(PID.TID 0000.0001) > &EEPARMS
(PID.TID 0000.0001) > useCubedSphereExchange=.TRUE.,
(PID.TID 0000.0001) > nTx=1,
(PID.TID 0000.0001) > nTy=1,
(PID.TID 0000.0001) >#debugMode=.TRUE.,
(PID.TID 0000.0001) > &
(PID.TID 0000.0001) ># Note: Some systems use & as the namelist terminator (as shown here).
(PID.TID 0000.0001) >#       Other systems use a / character.
(PID.TID 0000.0001) 
(PID.TID 0000.0001) // =======================================================
(PID.TID 0000.0001) // Computational Grid Specification ( see files "SIZE.h" )
(PID.TID 0000.0001) //                                  ( and "eedata"       )
(PID.TID 0000.0001) // =======================================================
(PID.TID 0000.0001)      nPx =    6 ; /* No. processes in X */
(PID.TID 0000.0001)      nPy =    1 ; /* No. processes in Y */
(PID.TID 0000.0001)      nSx =    1 ; /* No. tiles in X per process */
(PID.TID 0000.0001)      nSy =    1 ; /* No. tiles in Y per process */
(PID.TID 0000.0001)      sNx =   32 ; /* Tile size in X */
(PID.TID 0000.0001)      sNy =   32 ; /* Tile size in Y */
(PID.TID 0000.0001)      OLx =    4 ; /* Tile overlap distance in X */
(PID.TID 0000.0001)      OLy =    4 ; /* Tile overlap distance in Y */
(PID.TID 0000.0001)      nTx =    1 ; /* No. threads in X per process */
(PID.TID 0000.0001)      nTy =    1 ; /* No. threads in Y per process */
(PID.TID 0000.0001)       Nr =   15 ; /* No. levels in the vertical   */
(PID.TID 0000.0001)       Nx =  192 ; /* Total domain size in X ( = nPx*nSx*sNx ) */
(PID.TID 0000.0001)       Ny =   32 ; /* Total domain size in Y ( = nPy*nSy*sNy ) */
(PID.TID 0000.0001)   nTiles =    1 ; /* Total no. tiles per process ( = nSx*nSy ) */
(PID.TID 0000.0001)   nProcs =    6 ; /* Total no. processes ( = nPx*nPy ) */
(PID.TID 0000.0001) nThreads =    1 ; /* Total no. threads per process ( = nTx*nTy ) */
(PID.TID 0000.0001) usingMPI =    T ; /* Flag used to control whether MPI is in use */
(PID.TID 0000.0001)                   /*  note: To execute a program with MPI calls */
(PID.TID 0000.0001)                   /*  it must be launched appropriately e.g     */
(PID.TID 0000.0001)                   /*  "mpirun -np 64 ......"                    */
(PID.TID 0000.0001) useCoupler=    F ;/* Flag used to control communications with   */
(PID.TID 0000.0001)                   /*  other model components, through a coupler */
(PID.TID 0000.0001) useNest2W_parent =    F ;/* Control 2-W Nesting comm */
(PID.TID 0000.0001) useNest2W_child  =    F ;/* Control 2-W Nesting comm */
(PID.TID 0000.0001) debugMode =    F ; /* print debug msg. (sequence of S/R calls)  */
(PID.TID 0000.0001) printMapIncludesZeros=    F ; /* print zeros in Std.Output maps */
(PID.TID 0000.0001) maxLengthPrt1D=   65 /* maxLength of 1D array printed to StdOut */
(PID.TID 0000.0001) 
(PID.TID 0000.0001) ======= Starting MPI parallel Run =========
(PID.TID 0000.0001)  My Processor Name (len:  8 ) = r401i0n0
(PID.TID 0000.0001)  Located at (  0,  0) on processor grid (0:  5,0:  0)
(PID.TID 0000.0001)  Origin at  (     1,     1) on global grid (1:   192,1:    32)
(PID.TID 0000.0001)  North neighbor = processor 0000
(PID.TID 0000.0001)  South neighbor = processor 0000
(PID.TID 0000.0001)   East neighbor = processor 0001
(PID.TID 0000.0001)   West neighbor = processor 0005
(PID.TID 0000.0001) // ======================================================
(PID.TID 0000.0001) // Mapping of tiles to threads
(PID.TID 0000.0001) // ======================================================
(PID.TID 0000.0001) // -o- Thread   1, tiles (   1:   1,   1:   1)
(PID.TID 0000.0001) 
(PID.TID 0000.0001) W2_READPARMS: file data.exch2 not found
(PID.TID 0000.0001) => use W2_EXCH2 default: regular 6-facets Cube
(PID.TID 0000.0001) W2_useE2ioLayOut=    T ;/* T: use Exch2 glob IO map; F: use model default */
(PID.TID 0000.0001) W2_mapIO        =  -1 ; /* select option for Exch2 global-IO map */
(PID.TID 0000.0001) W2_printMsg     =  -1 ; /* select option for printing information */
(PID.TID 0000.0001) ===== Start setting W2 TOPOLOGY:
(PID.TID 0000.0001)  write to log-file: w2_tile_topology.0000.log
(PID.TID 0000.0001) =====       setting W2 TOPOLOGY: Done
(PID.TID 0000.0001) 
(PID.TID 0000.0001)  INI_PARMS: opening model parameter file "data"
(PID.TID 0000.0001)  OPEN_COPY_DATA_FILE: opening file data
(PID.TID 0000.0001) // =======================================================
(PID.TID 0000.0001) // Parameter file "data"
(PID.TID 0000.0001) // =======================================================
(PID.TID 0000.0001) ># ====================
(PID.TID 0000.0001) ># | Model parameters |
(PID.TID 0000.0001) ># ====================
(PID.TID 0000.0001) >#
(PID.TID 0000.0001) ># Continuous equation parameters
(PID.TID 0000.0001) > &PARM01
(PID.TID 0000.0001) > tRef=15*20.,
(PID.TID 0000.0001) > sRef=15*35.,
(PID.TID 0000.0001) > viscAh =3.E5,
(PID.TID 0000.0001) > viscAr =1.E-3,
(PID.TID 0000.0001) > diffKrT=3.E-5,
(PID.TID 0000.0001) > diffKrS=3.E-5,
(PID.TID 0000.0001) > ivdc_kappa=10.,
(PID.TID 0000.0001) > implicitDiffusion=.TRUE.,
(PID.TID 0000.0001) > rhonil=1035.,
(PID.TID 0000.0001) > rhoConstFresh=1000.,
(PID.TID 0000.0001) > eosType='JMD95Z',
(PID.TID 0000.0001) > staggerTimeStep=.TRUE.,
(PID.TID 0000.0001) > vectorInvariantMomentum=.TRUE.,
(PID.TID 0000.0001) > implicitFreeSurface=.TRUE.,
(PID.TID 0000.0001) > exactConserv=.TRUE.,
(PID.TID 0000.0001) > select_rStar=2,
(PID.TID 0000.0001) > nonlinFreeSurf=4,
(PID.TID 0000.0001) > useRealFreshWaterFlux=.TRUE.,
(PID.TID 0000.0001) >#allowFreezing=.TRUE.,
(PID.TID 0000.0001) > hFacMin=.1,
(PID.TID 0000.0001) > hFacMinDr=20.,
(PID.TID 0000.0001) > readBinaryPrec=64,
(PID.TID 0000.0001) > useSingleCpuIo=.TRUE.,
(PID.TID 0000.0001) > debugLevel=2,
(PID.TID 0000.0001) > &
(PID.TID 0000.0001) >
(PID.TID 0000.0001) ># Elliptic solver parameters
(PID.TID 0000.0001) > &PARM02
(PID.TID 0000.0001) > &
(PID.TID 0000.0001) >
(PID.TID 0000.0001) ># Time stepping parameters
(PID.TID 0000.0001) > &PARM03
(PID.TID 0000.0001) > nIter0           = 72000,
(PID.TID 0000.0001) > nTimeSteps       = 8,
(PID.TID 0000.0001) > deltaT           = 900.,
(PID.TID 0000.0001) > monitorFreq      = 1.,
(PID.TID 0000.0001) > abEps            = 0.1,
(PID.TID 0000.0001) > tracForcingOutAB = 1,
(PID.TID 0000.0001) > pickupStrictlyMatch=.FALSE.,
(PID.TID 0000.0001) > &
(PID.TID 0000.0001) >
(PID.TID 0000.0001) ># Gridding parameters
(PID.TID 0000.0001) > &PARM04
(PID.TID 0000.0001) > usingCurvilinearGrid=.TRUE.,
(PID.TID 0000.0001) > horizGridFile='grid_cs32',
(PID.TID 0000.0001) > delR= 50., 70., 100., 140., 190.,
(PID.TID 0000.0001) >       240., 290., 340., 390., 440.,
(PID.TID 0000.0001) >       490., 540., 590., 640., 690.,
(PID.TID 0000.0001) > &
(PID.TID 0000.0001) >
(PID.TID 0000.0001) ># Input datasets
(PID.TID 0000.0001) > &PARM05
(PID.TID 0000.0001) > bathyFile      ='bathy_Hmin50.bin',
(PID.TID 0000.0001) > &
(PID.TID 0000.0001) 
(PID.TID 0000.0001)  INI_PARMS ; starts to read PARM01
(PID.TID 0000.0001)  INI_PARMS ; read PARM01 : OK
(PID.TID 0000.0001)  INI_PARMS ; starts to read PARM02
(PID.TID 0000.0001)  INI_PARMS ; read PARM02 : OK
(PID.TID 0000.0001)  INI_PARMS ; starts to read PARM03
(PID.TID 0000.0001)  INI_PARMS ; read PARM03 : OK
(PID.TID 0000.0001)  INI_PARMS ; starts to read PARM04
(PID.TID 0000.0001)  INI_PARMS ; read PARM04 : OK
(PID.TID 0000.0001)  INI_PARMS ; starts to read PARM05
(PID.TID 0000.0001)  INI_PARMS ; read PARM05 : OK
(PID.TID 0000.0001)  INI_PARMS: finished reading file "data"
(PID.TID 0000.0001)  PACKAGES_BOOT: opening data.pkg
(PID.TID 0000.0001)  OPEN_COPY_DATA_FILE: opening file data.pkg
(PID.TID 0000.0001) // =======================================================
(PID.TID 0000.0001) // Parameter file "data.pkg"
(PID.TID 0000.0001) // =======================================================
(PID.TID 0000.0001) ># Packages
(PID.TID 0000.0001) > &PACKAGES
(PID.TID 0000.0001) > useGMRedi=.TRUE.,
(PID.TID 0000.0001) > useSEAICE=.TRUE.,
(PID.TID 0000.0001) > useDiagnostics=.TRUE.,
(PID.TID 0000.0001) > &
(PID.TID 0000.0001) 
(PID.TID 0000.0001)  PACKAGES_BOOT: finished reading data.pkg
(PID.TID 0000.0001)  PACKAGES_BOOT: On/Off package Summary
 --------  pkgs with a standard "usePKG" On/Off switch in "data.pkg":  --------
 pkg/gmredi               compiled   and   used ( useGMRedi                = T )
 pkg/seaice               compiled   and   used ( useSEAICE                = T )
 pkg/diagnostics          compiled   and   used ( useDiagnostics           = T )
 -------- pkgs without standard "usePKG" On/Off switch in "data.pkg":  --------
 pkg/generic_advdiff      compiled   and   used ( useGAD                   = T )
 pkg/mom_common           compiled   and   used ( momStepping              = T )
 pkg/mom_vecinv           compiled   and   used ( +vectorInvariantMomentum = T )
 pkg/mom_fluxform         compiled but not used ( & not vectorInvariantMom = F )
 pkg/monitor              compiled   and   used ( monitorFreq > 0.         = T )
 pkg/timeave              compiled but not used ( taveFreq > 0.            = F )
 pkg/debug                compiled but not used ( debugMode                = F )
 pkg/exch2                compiled   and   used
 pkg/rw                   compiled   and   used
 pkg/mdsio                compiled   and   used
(PID.TID 0000.0001)  PACKAGES_BOOT: End of package Summary
(PID.TID 0000.0001) 
(PID.TID 0000.0001)  GM_READPARMS: opening data.gmredi
(PID.TID 0000.0001)  OPEN_COPY_DATA_FILE: opening file data.gmredi
(PID.TID 0000.0001) // =======================================================
(PID.TID 0000.0001) // Parameter file "data.gmredi"
(PID.TID 0000.0001) // =======================================================
(PID.TID 0000.0001) ># GM+Redi package parameters:
(PID.TID 0000.0001) >
(PID.TID 0000.0001) >#-from MOM :
(PID.TID 0000.0001) ># GM_background_K: 	G & Mc.W  diffusion coefficient
(PID.TID 0000.0001) ># GM_maxSlope    :	max slope of isopycnals
(PID.TID 0000.0001) ># GM_Scrit       :	transition for scaling diffusion coefficient
(PID.TID 0000.0001) ># GM_Sd          :	half width scaling for diffusion coefficient
(PID.TID 0000.0001) ># GM_taper_scheme:	slope clipping or one of the tapering schemes
(PID.TID 0000.0001) ># GM_Kmin_horiz  :	horizontal diffusion minimum value
(PID.TID 0000.0001) >
(PID.TID 0000.0001) >#-Option parameters (needs to "define" options in GMREDI_OPTIONS.h")
(PID.TID 0000.0001) ># GM_isopycK     :	isopycnal diffusion coefficient (default=GM_background_K)
(PID.TID 0000.0001) ># GM_AdvForm     :	turn on GM Advective form       (default=Skew flux form)
(PID.TID 0000.0001) >
(PID.TID 0000.0001) > &GM_PARM01
(PID.TID 0000.0001) >  GM_background_K    = 800.,
(PID.TID 0000.0001) >  GM_taper_scheme    = 'gkw91',
(PID.TID 0000.0001) >  GM_maxSlope        = 1.e-2,
(PID.TID 0000.0001) >  GM_Kmin_horiz      = 50.,
(PID.TID 0000.0001) >  GM_Scrit           = 4.e-3,
(PID.TID 0000.0001) >  GM_Sd              = 1.e-3,
(PID.TID 0000.0001) ># GM_Visbeck_alpha   = 0.,
(PID.TID 0000.0001) ># GM_Visbeck_length  = 2.e+5,
(PID.TID 0000.0001) ># GM_Visbeck_depth   = 1.e+3,
(PID.TID 0000.0001) ># GM_Visbeck_maxval_K= 2.5e+3,
(PID.TID 0000.0001) > &
(PID.TID 0000.0001) >
(PID.TID 0000.0001) 
(PID.TID 0000.0001)  GM_READPARMS: finished reading data.gmredi
(PID.TID 0000.0001) 
(PID.TID 0000.0001)  SEAICE_READPARMS: opening data.seaice
(PID.TID 0000.0001)  OPEN_COPY_DATA_FILE: opening file data.seaice
(PID.TID 0000.0001) // =======================================================
(PID.TID 0000.0001) // Parameter file "data.seaice"
(PID.TID 0000.0001) // =======================================================
(PID.TID 0000.0001) ># SEAICE parameters
(PID.TID 0000.0001) > &SEAICE_PARM01
(PID.TID 0000.0001) > usePW79thermodynamics= .FALSE.,
(PID.TID 0000.0001) ># SEAICEuseDYNAMICS = .FALSE.,
(PID.TID 0000.0001) ># SEAICEupdateOceanStress=.FALSE.,
(PID.TID 0000.0001) ># SEAICEadvHeff  = .FALSE.,
(PID.TID 0000.0001) ># SEAICEadvArea  = .FALSE.,
(PID.TID 0000.0001) ># SEAICEadvSnow  = .FALSE.,
(PID.TID 0000.0001) ># SEAICEadvSalt  = .FALSE.,
(PID.TID 0000.0001) >#--
(PID.TID 0000.0001) > SEAICE_strength    = 2.6780e+04,
(PID.TID 0000.0001) > OCEAN_drag         = 8.1541e-04,
(PID.TID 0000.0001) ># SEAICE_waterDrag   = 5.3508,
(PID.TID 0000.0001) >#- waterDrag no longer includes rhoConst factor:
(PID.TID 0000.0001) ># SEAICE_waterDrag   = 5.16985507246376811E-3,
(PID.TID 0000.0001) >  SEAICE_waterDrag   = 5.169855072463768E-3,
(PID.TID 0000.0001) >#- old defaults
(PID.TID 0000.0001) >  SEAICEscaleSurfStress = .FALSE.,
(PID.TID 0000.0001) >  SEAICEaddSnowMass     = .FALSE.,
(PID.TID 0000.0001) >  SEAICE_useMultDimSnow = .FALSE.,
(PID.TID 0000.0001) >  SEAICE_Olx = 0,
(PID.TID 0000.0001) >  SEAICE_Oly = 0,
(PID.TID 0000.0001) >  SEAICEetaZmethod = 0,
(PID.TID 0000.0001) >  SEAICE_drag = 2.E-3,
(PID.TID 0000.0001) >#--
(PID.TID 0000.0001) > SEAICE_no_Slip     = .FALSE.,
(PID.TID 0000.0001) > LSR_ERROR          = 1.E-4,
(PID.TID 0000.0001) > SEAICElinearIterMax=  500,
(PID.TID 0000.0001) >#LSR_mixIniGuess    = 1,
(PID.TID 0000.0001) > SEAICEadvScheme    = 77,
(PID.TID 0000.0001) > SEAICEwriteState   = .TRUE.,
(PID.TID 0000.0001) >#SEAICE_monFreq = 1800.,
(PID.TID 0000.0001) ># AreaFile  = 'const100.bin',
(PID.TID 0000.0001) ># HeffFile  = 'const+20.bin',
(PID.TID 0000.0001) ># HsnowFile = 'const_00.bin',
(PID.TID 0000.0001) > &
(PID.TID 0000.0001) >
(PID.TID 0000.0001) > &SEAICE_PARM03
(PID.TID 0000.0001) > &
(PID.TID 0000.0001) 
(PID.TID 0000.0001)  SEAICE_READPARMS: finished reading data.seaice
(PID.TID 0000.0001)  DIAGNOSTICS_READPARMS: opening data.diagnostics
(PID.TID 0000.0001)  OPEN_COPY_DATA_FILE: opening file data.diagnostics
(PID.TID 0000.0001) // =======================================================
(PID.TID 0000.0001) // Parameter file "data.diagnostics"
(PID.TID 0000.0001) // =======================================================
(PID.TID 0000.0001) ># Diagnostic Package Choices
(PID.TID 0000.0001) >#--------------------
(PID.TID 0000.0001) >#  dumpAtLast (logical): always write output at the end of simulation (default=F)
(PID.TID 0000.0001) >#  diag_mnc   (logical): write to NetCDF files (default=useMNC)
(PID.TID 0000.0001) >#--for each output-stream:
(PID.TID 0000.0001) >#  fileName(n) : prefix of the output file name (max 80c long) for outp.stream n
(PID.TID 0000.0001) >#  frequency(n):< 0 : write snap-shot output every |frequency| seconds
(PID.TID 0000.0001) >#               > 0 : write time-average output every frequency seconds
(PID.TID 0000.0001) >#  timePhase(n)     : write at time = timePhase + multiple of |frequency|
(PID.TID 0000.0001) >#    averagingFreq  : frequency (in s) for periodic averaging interval
(PID.TID 0000.0001) >#    averagingPhase : phase     (in s) for periodic averaging interval
(PID.TID 0000.0001) >#    repeatCycle    : number of averaging intervals in 1 cycle
(PID.TID 0000.0001) >#  levels(:,n) : list of levels to write to file (Notes: declared as REAL)
(PID.TID 0000.0001) >#                when this entry is missing, select all common levels of this list
(PID.TID 0000.0001) >#  fields(:,n) : list of selected diagnostics fields (8.c) in outp.stream n
(PID.TID 0000.0001) >#                (see "available_diagnostics.log" file for the full list of diags)
(PID.TID 0000.0001) >#  missing_value(n) : missing value for real-type fields in output file "n"
(PID.TID 0000.0001) >#  fileFlags(n)     : specific code (8c string) for output file "n"
(PID.TID 0000.0001) >#--------------------
(PID.TID 0000.0001) ># This example dumps EXF diagnostics as snapshot after 10 time-steps
(PID.TID 0000.0001) ># Note: EXF air-sea fluxes over Sea-Ice are wrong
(PID.TID 0000.0001) > &DIAGNOSTICS_LIST
(PID.TID 0000.0001) >   dumpAtLast  = .TRUE.,
(PID.TID 0000.0001) >#--
(PID.TID 0000.0001) >    fields(1:10,1)  = 'oceQnet ','oceQsw  ','oceFWflx','oceSflux',
(PID.TID 0000.0001) >                      'oceTAUX ','oceTAUY ',
(PID.TID 0000.0001) >                      'THETA   ','SALT    ','UVEL    ', 'VVEL    ',
(PID.TID 0000.0001) >   fileName(1) = 'surfDiag',
(PID.TID 0000.0001) >  frequency(1) = 43200.,
(PID.TID 0000.0001) >
(PID.TID 0000.0001) >  fields(1:8,2)  = 'SIarea  ','SIheff  ','SIhsnow ','sIceLoad',
(PID.TID 0000.0001) >                   'SIuice  ','SIvice  ','SItaux  ','SItauy  ',
(PID.TID 0000.0001) >   fileName(2) = 'iceDiag',
(PID.TID 0000.0001) >  frequency(2) =  43200.,
(PID.TID 0000.0001) >  missing_value(2) = -999.,
(PID.TID 0000.0001) >
(PID.TID 0000.0001) >  fields(1:9,3)  = 'SIarea  ','SIheff  ','SIhsnow ','sIceLoad',
(PID.TID 0000.0001) >                   'SIuice  ','SIvice  ','SItaux  ','SItauy  ',
(PID.TID 0000.0001) >                   'CPLoWGHT',
(PID.TID 0000.0001) >   fileName(3) = 'iceInst',
(PID.TID 0000.0001) >  frequency(3) = -3600.,
(PID.TID 0000.0001) >  timePhase(3) =  0.,
(PID.TID 0000.0001) >  missing_value(3) = -999.,
(PID.TID 0000.0001) >
(PID.TID 0000.0001) >  fields(1:11,4) = 'SIareaN ','SIheffN ','SIhsnowN','SIqSnow ',
(PID.TID 0000.0001) >                   'SImeltPd','SItIces ','SIiceAge',
(PID.TID 0000.0001) >                   'SI_dArea','SI_dHeff','SI_dHsnw','SI_dQSnw',
(PID.TID 0000.0001) >#                  'SI_dMPnd',
(PID.TID 0000.0001) >#                  'SI_dTIce','SI_dIcAg',
(PID.TID 0000.0001) >   fileName(4) = 'iceNcat',
(PID.TID 0000.0001) >  frequency(4) = -3600.,
(PID.TID 0000.0001) >  timePhase(4) =  0.,
(PID.TID 0000.0001) >  fileFlags(4) = 'D       ',
(PID.TID 0000.0001) >
(PID.TID 0000.0001) >  fields(1:2,5)  = 'SIqIce  ',
(PID.TID 0000.0001) >                   'SI_dQIce',
(PID.TID 0000.0001) >   fileName(5) = 'iceEnerg',
(PID.TID 0000.0001) >  frequency(5) = -3600.,
(PID.TID 0000.0001) >  timePhase(5) =  0.,
(PID.TID 0000.0001) > &
(PID.TID 0000.0001) >
(PID.TID 0000.0001) >#--------------------
(PID.TID 0000.0001) ># Parameter for Diagnostics of per level statistics:
(PID.TID 0000.0001) >#--------------------
(PID.TID 0000.0001) >#  diagSt_mnc (logical): write stat-diags to NetCDF files (default=diag_mnc)
(PID.TID 0000.0001) >#  diagSt_regMaskFile : file containing the region-mask to read-in
(PID.TID 0000.0001) >#  nSetRegMskFile   : number of region-mask sets within the region-mask file
(PID.TID 0000.0001) >#  set_regMask(i)   : region-mask set-index that identifies the region "i"
(PID.TID 0000.0001) >#  val_regMask(i)   : region "i" identifier value in the region mask
(PID.TID 0000.0001) >#--for each output-stream:
(PID.TID 0000.0001) >#  stat_fName(n) : prefix of the output file name (max 80c long) for outp.stream n
(PID.TID 0000.0001) >#  stat_freq(n):< 0 : write snap-shot output every |stat_freq| seconds
(PID.TID 0000.0001) >#               > 0 : write time-average output every stat_freq seconds
(PID.TID 0000.0001) >#  stat_phase(n)    : write at time = stat_phase + multiple of |stat_freq|
(PID.TID 0000.0001) >#  stat_region(:,n) : list of "regions" (default: 1 region only=global)
(PID.TID 0000.0001) >#  stat_fields(:,n) : list of selected diagnostics fields (8.c) in outp.stream n
(PID.TID 0000.0001) >#                (see "available_diagnostics.log" file for the full list of diags)
(PID.TID 0000.0001) >#--------------------
(PID.TID 0000.0001) > &DIAG_STATIS_PARMS
(PID.TID 0000.0001) > stat_fields(1:21,1)  = 'SIarea  ','SIheff  ','SIhsnow ','sIceLoad',
(PID.TID 0000.0001) >                        'SIuice  ','SIvice  ','SItaux  ','SItauy  ',
(PID.TID 0000.0001) >                        'SIareaN ','SIheffN ','SIhsnowN',
(PID.TID 0000.0001) >                        'SIqSnow ','SIqIce  ','SImeltPd',
(PID.TID 0000.0001) >                        'SItIces ','SIiceAge',
(PID.TID 0000.0001) >                        'SI_dArea','SI_dHeff','SI_dHsnw',
(PID.TID 0000.0001) >                        'SI_dQSnw','SI_dQIce',
(PID.TID 0000.0001) >#                       'SI_dMPnd','SI_dTIce','SI_dIcAg',
(PID.TID 0000.0001) >  stat_fName(1) = 'iceStDiag',
(PID.TID 0000.0001) >   stat_freq(1) = 3600.,
(PID.TID 0000.0001) ># stat_phase(1) = 1800.,
(PID.TID 0000.0001) > &
(PID.TID 0000.0001) 
(PID.TID 0000.0001) S/R DIAGNOSTICS_READPARMS, read namelist "diagnostics_list": start
(PID.TID 0000.0001) S/R DIAGNOSTICS_READPARMS, read namelist "diagnostics_list": OK
(PID.TID 0000.0001) S/R DIAGNOSTICS_READPARMS, read namelist "DIAG_STATIS_PARMS": start
(PID.TID 0000.0001) S/R DIAGNOSTICS_READPARMS, read namelist "DIAG_STATIS_PARMS": OK
(PID.TID 0000.0001)  DIAGNOSTICS_READPARMS: global parameter summary:
(PID.TID 0000.0001)  dumpAtLast = /* always write time-ave diags at the end */
(PID.TID 0000.0001)                   T
(PID.TID 0000.0001)     ;
(PID.TID 0000.0001)  diag_mnc =   /* write NetCDF output files */
(PID.TID 0000.0001)                   F
(PID.TID 0000.0001)     ;
(PID.TID 0000.0001)  useMissingValue = /* put MissingValue where mask = 0 */
(PID.TID 0000.0001)                   F
(PID.TID 0000.0001)     ;
(PID.TID 0000.0001)  diagCG_maxIters = /* max number of iters in diag_cg2d */
(PID.TID 0000.0001)                     150
(PID.TID 0000.0001)     ;
(PID.TID 0000.0001)  diagCG_resTarget = /* residual target for diag_cg2d */
(PID.TID 0000.0001)                 1.000000000000000E-07
(PID.TID 0000.0001)     ;
(PID.TID 0000.0001)  diagCG_pcOffDFac = /* preconditioner off-diagonal factor */
(PID.TID 0000.0001)                 9.611687812379854E-01
(PID.TID 0000.0001)     ;
(PID.TID 0000.0001) -----------------------------------------------------
(PID.TID 0000.0001)  DIAGNOSTICS_READPARMS: active diagnostics summary:
(PID.TID 0000.0001) -----------------------------------------------------
(PID.TID 0000.0001) Creating Output Stream: surfDiag
(PID.TID 0000.0001) Output Frequency:      43200.000000 ; Phase:           0.000000
(PID.TID 0000.0001)  Averaging Freq.:      43200.000000 , Phase:           0.000000 , Cycle:   1
(PID.TID 0000.0001)  missing value: -9.990000000000E+02
(PID.TID 0000.0001)  Levels:    will be set later
(PID.TID 0000.0001)  Fields:    oceQnet  oceQsw   oceFWflx oceSflux oceTAUX  oceTAUY  THETA    SALT     UVEL     VVEL
(PID.TID 0000.0001) Creating Output Stream: iceDiag
(PID.TID 0000.0001) Output Frequency:      43200.000000 ; Phase:           0.000000
(PID.TID 0000.0001)  Averaging Freq.:      43200.000000 , Phase:           0.000000 , Cycle:   1
(PID.TID 0000.0001)  missing value: -9.990000000000E+02
(PID.TID 0000.0001)  Levels:    will be set later
(PID.TID 0000.0001)  Fields:    SIarea   SIheff   SIhsnow  sIceLoad SIuice   SIvice   SItaux   SItauy
(PID.TID 0000.0001) Creating Output Stream: iceInst
(PID.TID 0000.0001) Output Frequency:      -3600.000000 ; Phase:           0.000000
(PID.TID 0000.0001)  Averaging Freq.:          0.000000 , Phase:           0.000000 , Cycle:   1
(PID.TID 0000.0001)  missing value: -9.990000000000E+02
(PID.TID 0000.0001)  Levels:    will be set later
(PID.TID 0000.0001)  Fields:    SIarea   SIheff   SIhsnow  sIceLoad SIuice   SIvice   SItaux   SItauy   CPLoWGHT
(PID.TID 0000.0001) Creating Output Stream: iceNcat
(PID.TID 0000.0001) Output Frequency:      -3600.000000 ; Phase:           0.000000
(PID.TID 0000.0001)  Averaging Freq.:          0.000000 , Phase:           0.000000 , Cycle:   1
(PID.TID 0000.0001)  missing value: -9.990000000000E+02 ; F-Flags="D       "
(PID.TID 0000.0001)  Levels:    will be set later
(PID.TID 0000.0001)  Fields:    SIareaN  SIheffN  SIhsnowN SIqSnow  SImeltPd SItIces  SIiceAge SI_dArea SI_dHeff SI_dHsnw
(PID.TID 0000.0001)  Fields:    SI_dQSnw
(PID.TID 0000.0001) Creating Output Stream: iceEnerg
(PID.TID 0000.0001) Output Frequency:      -3600.000000 ; Phase:           0.000000
(PID.TID 0000.0001)  Averaging Freq.:          0.000000 , Phase:           0.000000 , Cycle:   1
(PID.TID 0000.0001)  missing value: -9.990000000000E+02
(PID.TID 0000.0001)  Levels:    will be set later
(PID.TID 0000.0001)  Fields:    SIqIce   SI_dQIce
(PID.TID 0000.0001) -----------------------------------------------------
(PID.TID 0000.0001)  DIAGNOSTICS_READPARMS: statistics diags. summary:
(PID.TID 0000.0001) Creating Stats. Output Stream: iceStDiag
(PID.TID 0000.0001) Output Frequency:       3600.000000 ; Phase:           0.000000
(PID.TID 0000.0001)  Regions:   0
(PID.TID 0000.0001)  Fields:    SIarea   SIheff   SIhsnow  sIceLoad SIuice   SIvice   SItaux   SItauy   SIareaN  SIheffN
(PID.TID 0000.0001)  Fields:    SIhsnowN SIqSnow  SIqIce   SImeltPd SItIces  SIiceAge SI_dArea SI_dHeff SI_dHsnw SI_dQSnw
(PID.TID 0000.0001)  Fields:    SI_dQIce
(PID.TID 0000.0001) -----------------------------------------------------
(PID.TID 0000.0001) 
(PID.TID 0000.0001) SET_PARMS: done
(PID.TID 0000.0001) Enter INI_VERTICAL_GRID: setInterFDr=    T ; setCenterDr=    F
(PID.TID 0000.0001) tile:   1 ; Read from file grid_cs32.face001.bin
(PID.TID 0000.0001)   => xC yC dxF dyF rA xG yG dxV dyU rAz dxC dyC rAw rAs dxG dyG AngleCS AngleSN
(PID.TID 0000.0001) %MON XC_max                       =   1.7854351589505E+02
(PID.TID 0000.0001) %MON XC_min                       =  -1.7854351589505E+02
(PID.TID 0000.0001) %MON XC_mean                      =  -4.6999441375798E-15
(PID.TID 0000.0001) %MON XC_sd                        =   1.0355545336287E+02
(PID.TID 0000.0001) %MON XG_max                       =   1.8000000000000E+02
(PID.TID 0000.0001) %MON XG_min                       =  -1.7708797161002E+02
(PID.TID 0000.0001) %MON XG_mean                      =   1.8603515625000E+00
(PID.TID 0000.0001) %MON XG_sd                        =   1.0357130300504E+02
(PID.TID 0000.0001) %MON DXC_max                      =   3.2375185836900E+05
(PID.TID 0000.0001) %MON DXC_min                      =   1.1142031410131E+05
(PID.TID 0000.0001) %MON DXC_mean                     =   2.8605689051214E+05
(PID.TID 0000.0001) %MON DXC_sd                       =   3.4042087138252E+04
(PID.TID 0000.0001) %MON DXF_max                      =   3.2369947500827E+05
(PID.TID 0000.0001) %MON DXF_min                      =   1.2020820513318E+05
(PID.TID 0000.0001) %MON DXF_mean                     =   2.8605437324820E+05
(PID.TID 0000.0001) %MON DXF_sd                       =   3.4050524252539E+04
(PID.TID 0000.0001) %MON DXG_max                      =   3.2375195872773E+05
(PID.TID 0000.0001) %MON DXG_min                      =   1.0098378008791E+05
(PID.TID 0000.0001) %MON DXG_mean                     =   2.8603818508931E+05
(PID.TID 0000.0001) %MON DXG_sd                       =   3.4140406908005E+04
(PID.TID 0000.0001) %MON DXV_max                      =   3.2380418162750E+05
(PID.TID 0000.0001) %MON DXV_min                      =   8.0152299824136E+04
(PID.TID 0000.0001) %MON DXV_mean                     =   2.8603970633619E+05
(PID.TID 0000.0001) %MON DXV_sd                       =   3.4145142117723E+04
(PID.TID 0000.0001) %MON YC_max                       =   8.7940663871962E+01
(PID.TID 0000.0001) %MON YC_min                       =  -8.7940663871962E+01
(PID.TID 0000.0001) %MON YC_mean                      =   0.0000000000000E+00
(PID.TID 0000.0001) %MON YC_sd                        =   3.8676242969072E+01
(PID.TID 0000.0001) %MON YG_max                       =   9.0000000000000E+01
(PID.TID 0000.0001) %MON YG_min                       =  -9.0000000000000E+01
(PID.TID 0000.0001) %MON YG_mean                      =  -1.1842378929335E-15
(PID.TID 0000.0001) %MON YG_sd                        =   3.8676895860710E+01
(PID.TID 0000.0001) %MON DYC_max                      =   3.2375185836900E+05
(PID.TID 0000.0001) %MON DYC_min                      =   1.1142031410131E+05
(PID.TID 0000.0001) %MON DYC_mean                     =   2.8605689051214E+05
(PID.TID 0000.0001) %MON DYC_sd                       =   3.4042087138252E+04
(PID.TID 0000.0001) %MON DYF_max                      =   3.2369947500827E+05
(PID.TID 0000.0001) %MON DYF_min                      =   1.2020820513318E+05
(PID.TID 0000.0001) %MON DYF_mean                     =   2.8605437324820E+05
(PID.TID 0000.0001) %MON DYF_sd                       =   3.4050524252539E+04
(PID.TID 0000.0001) %MON DYG_max                      =   3.2375195872773E+05
(PID.TID 0000.0001) %MON DYG_min                      =   1.0098378008791E+05
(PID.TID 0000.0001) %MON DYG_mean                     =   2.8603818508931E+05
(PID.TID 0000.0001) %MON DYG_sd                       =   3.4140406908005E+04
(PID.TID 0000.0001) %MON DYU_max                      =   3.2380418162750E+05
(PID.TID 0000.0001) %MON DYU_min                      =   8.0152299824136E+04
(PID.TID 0000.0001) %MON DYU_mean                     =   2.8603970633619E+05
(PID.TID 0000.0001) %MON DYU_sd                       =   3.4145142117723E+04
(PID.TID 0000.0001) %MON RA_max                       =   1.0479260248419E+11
(PID.TID 0000.0001) %MON RA_min                       =   1.4019007022556E+10
(PID.TID 0000.0001) %MON RA_mean                      =   8.2992246709265E+10
(PID.TID 0000.0001) %MON RA_sd                        =   1.7509089299457E+10
(PID.TID 0000.0001) %MON RAW_max                      =   1.0480965274559E+11
(PID.TID 0000.0001) %MON RAW_min                      =   1.2166903467143E+10
(PID.TID 0000.0001) %MON RAW_mean                     =   8.2992246709235E+10
(PID.TID 0000.0001) %MON RAW_sd                       =   1.7481917919656E+10
(PID.TID 0000.0001) %MON RAS_max                      =   1.0480965274559E+11
(PID.TID 0000.0001) %MON RAS_min                      =   1.2166903467143E+10
(PID.TID 0000.0001) %MON RAS_mean                     =   8.2992246709235E+10
(PID.TID 0000.0001) %MON RAS_sd                       =   1.7481917919656E+10
(PID.TID 0000.0001) %MON RAZ_max                      =   1.0484349334619E+11
(PID.TID 0000.0001) %MON RAZ_min                      =   8.8317900612505E+09
(PID.TID 0000.0001) %MON RAZ_mean                     =   8.2992246709235E+10
(PID.TID 0000.0001) %MON RAZ_sd                       =   1.7482297311044E+10
(PID.TID 0000.0001) %MON AngleCS_max                  =   9.9999994756719E-01
(PID.TID 0000.0001) %MON AngleCS_min                  =  -9.9968286884824E-01
(PID.TID 0000.0001) %MON AngleCS_mean                 =   3.3078922539000E-01
(PID.TID 0000.0001) %MON AngleCS_sd                   =   6.2496278958502E-01
(PID.TID 0000.0001) %MON AngleSN_max                  =   9.9968286884824E-01
(PID.TID 0000.0001) %MON AngleSN_min                  =  -9.9999994756719E-01
(PID.TID 0000.0001) %MON AngleSN_mean                 =  -3.3078922539000E-01
(PID.TID 0000.0001) %MON AngleSN_sd                   =   6.2496278958502E-01
(PID.TID 0000.0001)  MDS_READ_FIELD: opening global file: bathy_Hmin50.bin
(PID.TID 0000.0001) // =======================================================
(PID.TID 0000.0001) // Field Model R_low (ini_masks_etc)
(PID.TID 0000.0001) // CMIN =         -5.200000000000000E+03
(PID.TID 0000.0001) // CMAX =         -5.000000000000000E+01
(PID.TID 0000.0001) // CINT =          1.907407407407407E+02
(PID.TID 0000.0001) // SYMBOLS (CMIN->CMAX): -abcdefghijklmnopqrstuvwxyz+
(PID.TID 0000.0001) //                  0.0: .
(PID.TID 0000.0001) // RANGE I (Lo:Hi:Step):(    -3:    36:     1)
(PID.TID 0000.0001) // RANGE J (Lo:Hi:Step):(    36:    -3:    -1)
(PID.TID 0000.0001) // RANGE K (Lo:Hi:Step):(   1:   1:   1)
(PID.TID 0000.0001) // =======================================================
(PID.TID 0000.0001) K =   1
(PID.TID 0000.0001) //                I=6       I=16      I=26      I=36
(PID.TID 0000.0001) // |--J--|321012345|789012345|789012345|789012345|
(PID.TID 0000.0001) //     36 cbbc-ddcbcdehkhhmn..++..................
(PID.TID 0000.0001) //     35 dcac--cbbeefjkfefw+..........zpu........
(PID.TID 0000.0001) //     34 d--ba-abcehjnldcclz+........spps........
(PID.TID 0000.0001) //     33 --abbbccceiomkfdbbc+.......+s...........
(PID.TID 0000.0001) //     32 --bddefhhkqqlgfaakqz..v.+..+............
(PID.TID 0000.0001) //     31 abbcffijnpnqneaaat..umrr+s.z............
(PID.TID 0000.0001) //     30 --adgillkkkifcadcx.ymmqzqikvnnps........
(PID.TID 0000.0001) //     29 --cfiljigfjd--efdozy...+ximpnnuz........
(PID.TID 0000.0001) //     28 -abgkhfcccea-bdei........t..............
(PID.TID 0000.0001) //     27 -acghfbaaaa-achmy......................+
(PID.TID 0000.0001) //     26 -adhfca-----bfiv.......................+
(PID.TID 0000.0001) //     25 -achfa------ch+..................w......
(PID.TID 0000.0001) //     24 aaeifa--acbcei...................w......
(PID.TID 0000.0001) //     23 abfida-aabchjk...................zz.....
(PID.TID 0000.0001) //     22 -afhfaa---bfgi....................zz..rn
(PID.TID 0000.0001) //     21 babcgca----abe.....................ysstl
(PID.TID 0000.0001) //     20 fbbbcgfcaa-aae+.......................lc
(PID.TID 0000.0001) //     19 zmfeccdghfeegcbt......................aa
(PID.TID 0000.0001) //     18 ..wifedfkhfegbbcivlqfoz..............jaa
(PID.TID 0000.0001) //     17 ..+wfeefikhgcbbccaaacgn.............icaa
(PID.TID 0000.0001) //     16 ....wiheddeccdfhfbabdfl............jdbad
(PID.TID 0000.0001) //     15 ......ylea--acfihebcbbes..........sfcbbn
(PID.TID 0000.0001) //     14 ........c---acgkhdcc--di..........ofddch
(PID.TID 0000.0001) //     13 .......+b----cfkhec---afz.........nhfdff
(PID.TID 0000.0001) //     12 .......ec----chjhec---ag..........skiqdd
(PID.TID 0000.0001) //     11 ......pdca--achlheba--ai..........nkn.fd
(PID.TID 0000.0001) //     10 ......wfdb--achlhea---an.........uos..dc
(PID.TID 0000.0001) //      9 ......vgec---bfikca--cjl+.......+nnv.+cc
(PID.TID 0000.0001) //      8 .....zleca---afjfca--hdfz.......vkky.jce
(PID.TID 0000.0001) //      7 ...+zohec--abcfkhecbchbdx.......qiht.faa
(PID.TID 0000.0001) //      6 ..+yomfddcaabefkifdchaadt......uqdeisc--
(PID.TID 0000.0001) //      5 ..+nhgffkghccfhkhffgdaackz....uoibcimlaa
(PID.TID 0000.0001) //      4 .+ujhgfllfhdffhkfffca-aady...llnabdopfcb
(PID.TID 0000.0001) //      3 +vjggfcceeffffjlkjgaa---bfvheeln-aesphfd
(PID.TID 0000.0001) //      2 qifeecbbccddefilihecbaacbaajfega-aesqhff
(PID.TID 0000.0001) //      1 ebbbbaaaaaccdfhlhfefdcccaabjefbaaafonhgl
(PID.TID 0000.0001) //      0 -aaaaaaa-aacccfikkhecccbbbaaabaadfkllilm
(PID.TID 0000.0001) //     -1 --aaaaa----aacffiljgfffcca--adfikkiikimi
(PID.TID 0000.0001) //     -2 --aaa-------acdefinmlgiieb-chnnnmlmlfklk
(PID.TID 0000.0001) //     -3 a--a---aa---aedeegknmlgiigcdfhpokkimdkmk
(PID.TID 0000.0001) // =======================================================
(PID.TID 0000.0001) // END OF FIELD                                          =
(PID.TID 0000.0001) // =======================================================
(PID.TID 0000.0001) 
(PID.TID 0000.0001) // =======================================================
(PID.TID 0000.0001) // Field Model Ro_surf (ini_masks_etc)
(PID.TID 0000.0001) // CMIN =          1.000000000000000E+32
(PID.TID 0000.0001) // CMAX =         -1.000000000000000E+32
(PID.TID 0000.0001) // CINT =          0.000000000000000E+00
(PID.TID 0000.0001) // SYMBOLS (CMIN->CMAX): -abcdefghijklmnopqrstuvwxyz+
(PID.TID 0000.0001) //                  0.0: .
(PID.TID 0000.0001) // RANGE I (Lo:Hi:Step):(    -3:    36:     1)
(PID.TID 0000.0001) // RANGE J (Lo:Hi:Step):(    36:    -3:    -1)
(PID.TID 0000.0001) // RANGE K (Lo:Hi:Step):(   1:   1:   1)
(PID.TID 0000.0001) // =======================================================
(PID.TID 0000.0001) // =======================================================
(PID.TID 0000.0001) // END OF FIELD                                          =
(PID.TID 0000.0001) // =======================================================
(PID.TID 0000.0001) 
(PID.TID 0000.0001) // =======================================================
(PID.TID 0000.0001) // Field hFacC at iteration          0
(PID.TID 0000.0001) // CMIN =          1.000000000000000E+00
(PID.TID 0000.0001) // CMAX =          1.000000000000000E+00
(PID.TID 0000.0001) // CINT =          0.000000000000000E+00
(PID.TID 0000.0001) // SYMBOLS (CMIN->CMAX): -abcdefghijklmnopqrstuvwxyz+
(PID.TID 0000.0001) //                  0.0: .
(PID.TID 0000.0001) // RANGE I (Lo:Hi:Step):(    -3:    36:     1)
(PID.TID 0000.0001) // RANGE J (Lo:Hi:Step):(    36:    -3:    -1)
(PID.TID 0000.0001) // RANGE K (Lo:Hi:Step):(   1:   1:   1)
(PID.TID 0000.0001) // =======================================================
(PID.TID 0000.0001) // =======================================================
(PID.TID 0000.0001) // END OF FIELD                                          =
(PID.TID 0000.0001) // =======================================================
(PID.TID 0000.0001) 
(PID.TID 0000.0001) // =======================================================
(PID.TID 0000.0001) // Field hFacW at iteration          0
(PID.TID 0000.0001) // CMIN =          1.000000000000000E+00
(PID.TID 0000.0001) // CMAX =          1.000000000000000E+00
(PID.TID 0000.0001) // CINT =          0.000000000000000E+00
(PID.TID 0000.0001) // SYMBOLS (CMIN->CMAX): -abcdefghijklmnopqrstuvwxyz+
(PID.TID 0000.0001) //                  0.0: .
(PID.TID 0000.0001) // RANGE I (Lo:Hi:Step):(    -3:    36:     1)
(PID.TID 0000.0001) // RANGE J (Lo:Hi:Step):(    36:    -3:    -1)
(PID.TID 0000.0001) // RANGE K (Lo:Hi:Step):(   1:   1:   1)
(PID.TID 0000.0001) // =======================================================
(PID.TID 0000.0001) // =======================================================
(PID.TID 0000.0001) // END OF FIELD                                          =
(PID.TID 0000.0001) // =======================================================
(PID.TID 0000.0001) 
(PID.TID 0000.0001) // =======================================================
(PID.TID 0000.0001) // Field hFacS at iteration          0
(PID.TID 0000.0001) // CMIN =          1.000000000000000E+00
(PID.TID 0000.0001) // CMAX =          1.000000000000000E+00
(PID.TID 0000.0001) // CINT =          0.000000000000000E+00
(PID.TID 0000.0001) // SYMBOLS (CMIN->CMAX): -abcdefghijklmnopqrstuvwxyz+
(PID.TID 0000.0001) //                  0.0: .
(PID.TID 0000.0001) // RANGE I (Lo:Hi:Step):(    -3:    36:     1)
(PID.TID 0000.0001) // RANGE J (Lo:Hi:Step):(    36:    -3:    -1)
(PID.TID 0000.0001) // RANGE K (Lo:Hi:Step):(   1:   1:   1)
(PID.TID 0000.0001) // =======================================================
(PID.TID 0000.0001) // =======================================================
(PID.TID 0000.0001) // END OF FIELD                                          =
(PID.TID 0000.0001) // =======================================================
(PID.TID 0000.0001) 
(PID.TID 0000.0001) GAD_INIT_FIXED: GAD_OlMinSize=  1  0  1
(PID.TID 0000.0001) 
(PID.TID 0000.0001) // ===================================
(PID.TID 0000.0001) // GAD parameters :
(PID.TID 0000.0001) // ===================================
(PID.TID 0000.0001) tempAdvScheme =   /* Temp. Horiz.Advection scheme selector */
(PID.TID 0000.0001)                       2
(PID.TID 0000.0001)     ;
(PID.TID 0000.0001) tempVertAdvScheme =   /* Temp. Vert. Advection scheme selector */
(PID.TID 0000.0001)                       2
(PID.TID 0000.0001)     ;
(PID.TID 0000.0001) tempMultiDimAdvec =   /* use Muti-Dim Advec method for Temp */
(PID.TID 0000.0001)                   F
(PID.TID 0000.0001)     ;
(PID.TID 0000.0001) tempSOM_Advection = /* use 2nd Order Moment Advection for Temp */
(PID.TID 0000.0001)                   F
(PID.TID 0000.0001)     ;
(PID.TID 0000.0001) AdamsBashforthGt = /* apply Adams-Bashforth extrapolation on Gt */
(PID.TID 0000.0001)                   T
(PID.TID 0000.0001)     ;
(PID.TID 0000.0001) AdamsBashforth_T = /* apply Adams-Bashforth extrapolation on Temp */
(PID.TID 0000.0001)                   F
(PID.TID 0000.0001)     ;
(PID.TID 0000.0001) saltAdvScheme =   /* Salt. Horiz.advection scheme selector */
(PID.TID 0000.0001)                       2
(PID.TID 0000.0001)     ;
(PID.TID 0000.0001) saltVertAdvScheme =   /* Salt. Vert. Advection scheme selector */
(PID.TID 0000.0001)                       2
(PID.TID 0000.0001)     ;
(PID.TID 0000.0001) saltMultiDimAdvec =   /* use Muti-Dim Advec method for Salt */
(PID.TID 0000.0001)                   F
(PID.TID 0000.0001)     ;
(PID.TID 0000.0001) saltSOM_Advection = /* use 2nd Order Moment Advection for Salt */
(PID.TID 0000.0001)                   F
(PID.TID 0000.0001)     ;
(PID.TID 0000.0001) AdamsBashforthGs = /* apply Adams-Bashforth extrapolation on Gs */
(PID.TID 0000.0001)                   T
(PID.TID 0000.0001)     ;
(PID.TID 0000.0001) AdamsBashforth_S = /* apply Adams-Bashforth extrapolation on Salt */
(PID.TID 0000.0001)                   F
(PID.TID 0000.0001)     ;
(PID.TID 0000.0001) // ===================================
(PID.TID 0000.0001) SEAICE_INIT_FIXED: Computing  5 thickness category limits with
(PID.TID 0000.0001) Hlimit_c1  = /* ITD bin parameter */
(PID.TID 0000.0001)                 3.000000000000000E+00
(PID.TID 0000.0001)     ;
(PID.TID 0000.0001) Hlimit_c2  = /* ITD bin parameter */
(PID.TID 0000.0001)                 1.500000000000000E+01
(PID.TID 0000.0001)     ;
(PID.TID 0000.0001) Hlimit_c3  = /* ITD bin parameter */
(PID.TID 0000.0001)                 3.000000000000000E+00
(PID.TID 0000.0001)     ;
(PID.TID 0000.0001) 
(PID.TID 0000.0001) // =======================================================
(PID.TID 0000.0001) // Seaice configuration (SEAICE_PARM01) >>> START <<<
(PID.TID 0000.0001) // =======================================================
(PID.TID 0000.0001) 
(PID.TID 0000.0001)    Seaice time stepping configuration   > START <
(PID.TID 0000.0001)    ----------------------------------------------
(PID.TID 0000.0001) SEAICE_deltaTtherm= /* thermodynamic timestep */
(PID.TID 0000.0001)                 9.000000000000000E+02
(PID.TID 0000.0001)     ;
(PID.TID 0000.0001) SEAICE_deltaTdyn  = /* dynamic timestep */
(PID.TID 0000.0001)                 9.000000000000000E+02
(PID.TID 0000.0001)     ;
(PID.TID 0000.0001) SEAICE_deltaTevp  = /* EVP timestep */
(PID.TID 0000.0001)                 1.234567000000000E+05
(PID.TID 0000.0001)     ;
(PID.TID 0000.0001) SEAICEuseBDF2  = /* use backw. differencing for mom. eq. */
(PID.TID 0000.0001)                   F
(PID.TID 0000.0001)     ;
(PID.TID 0000.0001) SEAICEupdateOceanStress= /* update Ocean surf. stress */
(PID.TID 0000.0001)                   T
(PID.TID 0000.0001)     ;
(PID.TID 0000.0001) SEAICErestoreUnderIce  = /* restore T and S under ice */
(PID.TID 0000.0001)                   F
(PID.TID 0000.0001)     ;
(PID.TID 0000.0001) 
(PID.TID 0000.0001)    Seaice dynamics configuration   > START <
(PID.TID 0000.0001)    ------------------------------------------
(PID.TID 0000.0001) SEAICEuseDYNAMICS = /* use dynamics */
(PID.TID 0000.0001)                   T
(PID.TID 0000.0001)     ;
(PID.TID 0000.0001) model grid type   = /* type of sea ice model grid */
(PID.TID 0000.0001)               'C-GRID'
(PID.TID 0000.0001)     ;
(PID.TID 0000.0001) SEAICEuseStrImpCpl = /* use strongly implicit coupling */
(PID.TID 0000.0001)                   F
(PID.TID 0000.0001)     ;
(PID.TID 0000.0001) SEAICEusePicardAsPrecon = /* Picard as preconditioner */
(PID.TID 0000.0001)                   F
(PID.TID 0000.0001)     ;
(PID.TID 0000.0001) SEAICEuseLSR      = /* use default Picard-LSR solver */
(PID.TID 0000.0001)                   T
(PID.TID 0000.0001)     ;
(PID.TID 0000.0001) SEAICEuseKrylov   = /* use Picard-Krylov solver */
(PID.TID 0000.0001)                   F
(PID.TID 0000.0001)     ;
(PID.TID 0000.0001) SEAICEuseEVP      = /* use EVP solver rather than LSR */
(PID.TID 0000.0001)                   F
(PID.TID 0000.0001)     ;
(PID.TID 0000.0001) SEAICEuseJFNK     = /* use JFNK solver */
(PID.TID 0000.0001)                   F
(PID.TID 0000.0001)     ;
(PID.TID 0000.0001) OCEAN_drag        = /* air-ocean drag coefficient */
(PID.TID 0000.0001)                 8.154100000000000E-04
(PID.TID 0000.0001)     ;
(PID.TID 0000.0001) SEAICE_drag       = /* air-ice drag coefficient */
(PID.TID 0000.0001)                 2.000000000000000E-03
(PID.TID 0000.0001)     ;
(PID.TID 0000.0001) SEAICE_drag_south      = /* Southern Ocean SEAICE_drag */
(PID.TID 0000.0001)                 2.000000000000000E-03
(PID.TID 0000.0001)     ;
(PID.TID 0000.0001) SEAICE_waterDrag  = /* water-ice drag */
(PID.TID 0000.0001)                 5.169855072463768E-03
(PID.TID 0000.0001)     ;
(PID.TID 0000.0001) SEAICE_waterDrag_south = /* Southern Ocean waterDrag */
(PID.TID 0000.0001)                 5.169855072463768E-03
(PID.TID 0000.0001)     ;
(PID.TID 0000.0001) SEAICEuseTilt     = /* include surface tilt in dyna. */
(PID.TID 0000.0001)                   T
(PID.TID 0000.0001)     ;
(PID.TID 0000.0001) SEAICEuseTEM      = /* use truncated ellipse rheology */
(PID.TID 0000.0001)                   F
(PID.TID 0000.0001)     ;
(PID.TID 0000.0001) SEAICE_strength   = /* sea-ice strength Pstar */
(PID.TID 0000.0001)                 2.678000000000000E+04
(PID.TID 0000.0001)     ;
(PID.TID 0000.0001) SEAICE_cStar      = /* sea-ice strength parameter cStar */
(PID.TID 0000.0001)                 2.000000000000000E+01
(PID.TID 0000.0001)     ;
(PID.TID 0000.0001) SEAICEpressReplFac= /* press. replacement method factor */
(PID.TID 0000.0001)                 1.000000000000000E+00
(PID.TID 0000.0001)     ;
(PID.TID 0000.0001) SEAICE_tensilFac  = /* sea-ice tensile strength factor */
(PID.TID 0000.0001)                 0.000000000000000E+00
(PID.TID 0000.0001)     ;
(PID.TID 0000.0001) SEAICE_tensilDepth= /* crit. depth for tensile strength */
(PID.TID 0000.0001)                 0.000000000000000E+00
(PID.TID 0000.0001)     ;
(PID.TID 0000.0001) SEAICEpresH0   = /* sea-ice strength Heff threshold */
(PID.TID 0000.0001)                 1.000000000000000E+00
(PID.TID 0000.0001)     ;
(PID.TID 0000.0001) SEAICEpresPow0 = /* exponent for Heff<SEAICEpresH0 */
(PID.TID 0000.0001)                       1
(PID.TID 0000.0001)     ;
(PID.TID 0000.0001) SEAICEpresPow1 = /* exponent for Heff>SEAICEpresH0 */
(PID.TID 0000.0001)                       1
(PID.TID 0000.0001)     ;
(PID.TID 0000.0001) SEAICEetaZmethod = /* method computing eta at Z-point */
(PID.TID 0000.0001)                       0
(PID.TID 0000.0001)     ;
(PID.TID 0000.0001) SEAICE_zetaMin    = /* lower bound for viscosity */
(PID.TID 0000.0001)                 0.000000000000000E+00
(PID.TID 0000.0001)     ;
(PID.TID 0000.0001) SEAICE_eccen    = /* elliptical yield curve eccent */
(PID.TID 0000.0001)                 2.000000000000000E+00
(PID.TID 0000.0001)     ;
(PID.TID 0000.0001) SEAICEstressFactor    = /* wind stress scaling factor */
(PID.TID 0000.0001)                 1.000000000000000E+00
(PID.TID 0000.0001)     ;
(PID.TID 0000.0001) SEAICE_airTurnAngle    = /* air-ice turning angle */
(PID.TID 0000.0001)                 0.000000000000000E+00
(PID.TID 0000.0001)     ;
(PID.TID 0000.0001) SEAICE_waterTurnAngle  = /* ice-water turning angle */
(PID.TID 0000.0001)                 0.000000000000000E+00
(PID.TID 0000.0001)     ;
(PID.TID 0000.0001) SEAICEuseMetricTerms = /* use metric terms */
(PID.TID 0000.0001)                   T
(PID.TID 0000.0001)     ;
(PID.TID 0000.0001) SEAICE_no_slip    = /* no slip boundary conditions */
(PID.TID 0000.0001)                   F
(PID.TID 0000.0001)     ;
(PID.TID 0000.0001) SEAICE_2ndOrderBC = /* 2nd order no slip boundary conditions */
(PID.TID 0000.0001)                   F
(PID.TID 0000.0001)     ;
(PID.TID 0000.0001) SEAICE_clipVeloctities = /* impose max. vels. */
(PID.TID 0000.0001)                   F
(PID.TID 0000.0001)     ;
(PID.TID 0000.0001) useHB87stressCoupling  = /* altern. ice-ocean stress */
(PID.TID 0000.0001)                   F
(PID.TID 0000.0001)     ;
(PID.TID 0000.0001) SEAICEscaleSurfStress  = /* scale atm. and ocean-surface stress with AREA */
(PID.TID 0000.0001)                   F
(PID.TID 0000.0001)     ;
(PID.TID 0000.0001) SEAICE_maskRHS    = /* mask RHS of solver */
(PID.TID 0000.0001)                   F
(PID.TID 0000.0001)     ;
(PID.TID 0000.0001) SEAICEaddSnowMass = /* add snow mass to seaiceMassC/U/V */
(PID.TID 0000.0001)                   F
(PID.TID 0000.0001)     ;
(PID.TID 0000.0001) LSR_mixIniGuess = /* mix free-drift sol. into LSR initial Guess */
(PID.TID 0000.0001)                      -1
(PID.TID 0000.0001)     ;
(PID.TID 0000.0001) SEAICE_LSRrelaxU  = /* LSR solver: relaxation parameter */
(PID.TID 0000.0001)                 9.500000000000000E-01
(PID.TID 0000.0001)     ;
(PID.TID 0000.0001) SEAICE_LSRrelaxV  = /* LSR solver: relaxation parameter */
(PID.TID 0000.0001)                 9.500000000000000E-01
(PID.TID 0000.0001)     ;
(PID.TID 0000.0001) LSR_ERROR         = /* sets accuracy of LSR solver */
(PID.TID 0000.0001)                 1.000000000000000E-04
(PID.TID 0000.0001)     ;
(PID.TID 0000.0001) SOLV_NCHECK       = /* test interval for LSR solver */
(PID.TID 0000.0001)                       2
(PID.TID 0000.0001)     ;
(PID.TID 0000.0001) SEAICEuseMultiTileSolver = /* use full domain tri-diag solver */
(PID.TID 0000.0001)                   F
(PID.TID 0000.0001)     ;
(PID.TID 0000.0001) SEAICE_OLx = /* overlap for LSR/preconditioner */
(PID.TID 0000.0001)                       0
(PID.TID 0000.0001)     ;
(PID.TID 0000.0001) SEAICE_OLy = /* overlap for LSR/preconditioner */
(PID.TID 0000.0001)                       0
(PID.TID 0000.0001)     ;
(PID.TID 0000.0001) SEAICEnonLinIterMax = /* max. number of nonlinear solver steps */
(PID.TID 0000.0001)                       2
(PID.TID 0000.0001)     ;
(PID.TID 0000.0001) SEAICElinearIterMax = /* max. number of linear solver steps */
(PID.TID 0000.0001)                     500
(PID.TID 0000.0001)     ;
(PID.TID 0000.0001) SEAICEnonLinTol     = /* non-linear solver tolerance */
(PID.TID 0000.0001)                 0.000000000000000E+00
(PID.TID 0000.0001)     ;
(PID.TID 0000.0001) 
(PID.TID 0000.0001)    Seaice advection diffusion config,   > START <
(PID.TID 0000.0001)    -----------------------------------------------
(PID.TID 0000.0001) SEAICEmomAdvection = /* advect sea ice momentum */
(PID.TID 0000.0001)                   F
(PID.TID 0000.0001)     ;
(PID.TID 0000.0001) SEAICEadvHeff = /* advect effective ice thickness */
(PID.TID 0000.0001)                   T
(PID.TID 0000.0001)     ;
(PID.TID 0000.0001) SEAICEadvArea = /* advect fractional ice area */
(PID.TID 0000.0001)                   T
(PID.TID 0000.0001)     ;
(PID.TID 0000.0001) SEAICEadvSnow = /* advect snow layer together with ice */
(PID.TID 0000.0001)                   T
(PID.TID 0000.0001)     ;
(PID.TID 0000.0001) SEAICEadvScheme   = /* advection scheme for ice */
(PID.TID 0000.0001)                      77
(PID.TID 0000.0001)     ;
(PID.TID 0000.0001) SEAICEadvSchArea   = /* advection scheme for area */
(PID.TID 0000.0001)                      77
(PID.TID 0000.0001)     ;
(PID.TID 0000.0001) SEAICEadvSchHeff   = /* advection scheme for thickness */
(PID.TID 0000.0001)                      77
(PID.TID 0000.0001)     ;
(PID.TID 0000.0001) SEAICEadvSchSnow   = /* advection scheme for snow */
(PID.TID 0000.0001)                      77
(PID.TID 0000.0001)     ;
(PID.TID 0000.0001) SEAICEdiffKhArea   = /* diffusivity (m^2/s) for area */
(PID.TID 0000.0001)                 0.000000000000000E+00
(PID.TID 0000.0001)     ;
(PID.TID 0000.0001) SEAICEdiffKhHeff   = /* diffusivity (m^2/s) for heff */
(PID.TID 0000.0001)                 0.000000000000000E+00
(PID.TID 0000.0001)     ;
(PID.TID 0000.0001) SEAICEdiffKhSnow   = /* diffusivity (m^2/s) for snow */
(PID.TID 0000.0001)                 0.000000000000000E+00
(PID.TID 0000.0001)     ;
(PID.TID 0000.0001) DIFF1             = /* parameter used in advect.F [m/s] */
(PID.TID 0000.0001)                 0.000000000000000E+00
(PID.TID 0000.0001)     ;
(PID.TID 0000.0001) 
(PID.TID 0000.0001)    Seaice ice thickness distribution configuration   > START <
(PID.TID 0000.0001)    -----------------------------------------------------------
(PID.TID 0000.0001) nITD              = /* number of ice thickness categories */
(PID.TID 0000.0001)                       5
(PID.TID 0000.0001)     ;
(PID.TID 0000.0001) Hlimit = /* seaice thickness category bin limits ( m ), Hlimit(0)=0 */
(PID.TID 0000.0001)                 6.445072168194259E-01,      /* K =  1 */
(PID.TID 0000.0001)                 1.391433497576304E+00,      /* K =  2 */
(PID.TID 0000.0001)                 2.470179381959889E+00,      /* K =  3 */
(PID.TID 0000.0001)                 4.567287918850493E+00,      /* K =  4 */
(PID.TID 0000.0001)                 9.999000000000000E+02       /* K =  5 */
(PID.TID 0000.0001)     ;
(PID.TID 0000.0001) SEAICEuseLinRemapITD  = /* select linear remapping scheme for ITD */
(PID.TID 0000.0001)                   T
(PID.TID 0000.0001)     ;
(PID.TID 0000.0001) useHibler79IceStrength  = /* select ice strength parameterizationd */
(PID.TID 0000.0001)                   T
(PID.TID 0000.0001)     ;
(PID.TID 0000.0001) SEAICEsimpleRidging  = /* select ridging scheme */
(PID.TID 0000.0001)                   T
(PID.TID 0000.0001)     ;
(PID.TID 0000.0001) SEAICEpartFunc   = /* select ridging participation function */
(PID.TID 0000.0001)                       0
(PID.TID 0000.0001)     ;
(PID.TID 0000.0001) SEAICEredistFunc = /* select ridging redistribution function */
(PID.TID 0000.0001)                       0
(PID.TID 0000.0001)     ;
(PID.TID 0000.0001) SEAICE_cf  = /* ice strength parameter */
(PID.TID 0000.0001)                 1.700000000000000E+01
(PID.TID 0000.0001)     ;
(PID.TID 0000.0001) SEAICEshearParm  = /* amount of energy lost to shear */
(PID.TID 0000.0001)                 5.000000000000000E-01
(PID.TID 0000.0001)     ;
(PID.TID 0000.0001) SEAICEgStar  = /* ridging parameter */
(PID.TID 0000.0001)                 1.500000000000000E-01
(PID.TID 0000.0001)     ;
(PID.TID 0000.0001) SEAICEhStar  = /* ridging parameter */
(PID.TID 0000.0001)                 2.500000000000000E+01
(PID.TID 0000.0001)     ;
(PID.TID 0000.0001) SEAICEaStar  = /* ridging parameter */
(PID.TID 0000.0001)                 5.000000000000000E-02
(PID.TID 0000.0001)     ;
(PID.TID 0000.0001) SEAICEmuRidging  = /* ridging parameter */
(PID.TID 0000.0001)                 3.000000000000000E+00
(PID.TID 0000.0001)     ;
(PID.TID 0000.0001) SEAICEmaxRaft  = /* ridging parameter */
(PID.TID 0000.0001)                 1.000000000000000E+00
(PID.TID 0000.0001)     ;
(PID.TID 0000.0001) SEAICEsnowFracRidge  = /* fraction of snow remaining on ridges */
(PID.TID 0000.0001)                 5.000000000000000E-01
(PID.TID 0000.0001)     ;
(PID.TID 0000.0001) 
(PID.TID 0000.0001)    Seaice thermodynamics configuration   > START <
(PID.TID 0000.0001)    -----------------------------------------------
(PID.TID 0000.0001) SEAICE_rhoIce     = /* density of sea ice (kg/m3) */
(PID.TID 0000.0001)                 9.100000000000000E+02
(PID.TID 0000.0001)     ;
(PID.TID 0000.0001) SEAICE_rhoSnow    = /* density of snow (kg/m3) */
(PID.TID 0000.0001)                 3.300000000000000E+02
(PID.TID 0000.0001)     ;
(PID.TID 0000.0001) SEAICE_rhoAir     = /* density of air (kg/m3) */
(PID.TID 0000.0001)                 1.300000000000000E+00
(PID.TID 0000.0001)     ;
(PID.TID 0000.0001) usePW79thermodynamics  = /* default 0-layer TD */
(PID.TID 0000.0001)                   F
(PID.TID 0000.0001)     ;
(PID.TID 0000.0001)    pkg/seaice thermodynamics is OFF
(PID.TID 0000.0001) 
(PID.TID 0000.0001)    Seaice initialization and IO config.,   > START <
(PID.TID 0000.0001)    -------------------------------------------------
(PID.TID 0000.0001) SEAICE_initialHEFF= /* initial sea-ice thickness */
(PID.TID 0000.0001)                 0.000000000000000E+00
(PID.TID 0000.0001)     ;
(PID.TID 0000.0001) AreaFile = /* Initial ice concentration File */
(PID.TID 0000.0001)               ''
(PID.TID 0000.0001)     ;
(PID.TID 0000.0001) HeffFile = /* Initial effective ice thickness File */
(PID.TID 0000.0001)               ''
(PID.TID 0000.0001)     ;
(PID.TID 0000.0001) HsnowFile = /* Initial snow thickness File */
(PID.TID 0000.0001)               ''
(PID.TID 0000.0001)     ;
(PID.TID 0000.0001) uIceFile = /* Initial U-ice velocity File */
(PID.TID 0000.0001)               ''
(PID.TID 0000.0001)     ;
(PID.TID 0000.0001) vIceFile = /* Initial V-ice velocity File */
(PID.TID 0000.0001)               ''
(PID.TID 0000.0001)     ;
(PID.TID 0000.0001) SEAICEwriteState  = /* write sea ice state to file */
(PID.TID 0000.0001)                   T
(PID.TID 0000.0001)     ;
(PID.TID 0000.0001) SEAICE_monFreq  = /* monitor frequency */
(PID.TID 0000.0001)                 1.000000000000000E+00
(PID.TID 0000.0001)     ;
(PID.TID 0000.0001) SEAICE_dumpFreq   = /* dump frequency */
(PID.TID 0000.0001)                 0.000000000000000E+00
(PID.TID 0000.0001)     ;
(PID.TID 0000.0001) SEAICE_taveFreq   = /* time-averaging frequency */
(PID.TID 0000.0001)                 0.000000000000000E+00
(PID.TID 0000.0001)     ;
(PID.TID 0000.0001) SEAICE_mon_stdio  = /* write monitor to std-outp */
(PID.TID 0000.0001)                   T
(PID.TID 0000.0001)     ;
(PID.TID 0000.0001) SEAICE_dump_mdsio = /* write snap-shot   using MDSIO */
(PID.TID 0000.0001)                   T
(PID.TID 0000.0001)     ;
(PID.TID 0000.0001) SEAICE_tave_mdsio = /* write TimeAverage using MDSIO */
(PID.TID 0000.0001)                   T
(PID.TID 0000.0001)     ;
(PID.TID 0000.0001) 
(PID.TID 0000.0001)    Seaice regularization numbers,   > START <
(PID.TID 0000.0001)    -----------------------------------------------
(PID.TID 0000.0001) SEAICE_deltaMin   = /* reduce singularities in Delta */
(PID.TID 0000.0001)                 1.000000000000000E-10
(PID.TID 0000.0001)     ;
(PID.TID 0000.0001) SEAICE_EPS        = /* small number */
(PID.TID 0000.0001)                 1.000000000000000E-10
(PID.TID 0000.0001)     ;
(PID.TID 0000.0001) SEAICE_EPS_SQ     = /* small number squared */
(PID.TID 0000.0001)                 1.000000000000000E-20
(PID.TID 0000.0001)     ;
(PID.TID 0000.0001) SEAICE_area_reg   = /* reduce derivative singularities */
(PID.TID 0000.0001)                 1.000000000000000E-05
(PID.TID 0000.0001)     ;
(PID.TID 0000.0001) SEAICE_hice_reg   = /* reduce derivative singularities */
(PID.TID 0000.0001)                 5.000000000000000E-02
(PID.TID 0000.0001)     ;
(PID.TID 0000.0001) SEAICE_area_floor = /* reduce derivative singularities */
(PID.TID 0000.0001)                 1.000000000000000E-05
(PID.TID 0000.0001)     ;
(PID.TID 0000.0001) 
(PID.TID 0000.0001) // =======================================================
(PID.TID 0000.0001) // Seaice configuration (SEAICE_PARM01) >>> END <<<
(PID.TID 0000.0001) // =======================================================
(PID.TID 0000.0001) 
(PID.TID 0000.0001) ------------------------------------------------------------
(PID.TID 0000.0001) DIAGNOSTICS_SET_LEVELS: done
(PID.TID 0000.0001)  Total Nb of available Diagnostics: ndiagt=   303
(PID.TID 0000.0001)  write list of available Diagnostics to file: available_diagnostics.log
(PID.TID 0000.0001) SETDIAG: Allocate  1 x  1 Levels for Diagnostic #    86 oceQnet
(PID.TID 0000.0001) SETDIAG: Allocate  1 x  1 Levels for Diagnostic #    87 oceQsw
(PID.TID 0000.0001) SETDIAG: Allocate  1 x  1 Levels for Diagnostic #    84 oceFWflx
(PID.TID 0000.0001) SETDIAG: Allocate  1 x  1 Levels for Diagnostic #    85 oceSflux
(PID.TID 0000.0001) SETDIAG: Allocate  1 x  1 Levels for Diagnostic #    80 oceTAUX
(PID.TID 0000.0001) SETDIAG: Allocate  1 x  1 Levels for Diagnostic #    81 oceTAUY
(PID.TID 0000.0001) SETDIAG: Allocate 15 x  1 Levels for Diagnostic #    26 THETA
(PID.TID 0000.0001) SETDIAG: Allocate 15 x  1 Levels for Diagnostic #    27 SALT
(PID.TID 0000.0001) SETDIAG: Allocate 15 x  1 Levels for Diagnostic #    30 UVEL
(PID.TID 0000.0001) SETDIAG: Allocate 15 x  1 Levels for Diagnostic #    31 VVEL
(PID.TID 0000.0001) SETDIAG: Allocate  1 x  1 Levels for Diagnostic #   217 SIarea
(PID.TID 0000.0001) SETDIAG: Allocate  1 x  1 Levels for Diagnostic #   220 SIheff
(PID.TID 0000.0001) SETDIAG: Allocate  1 x  1 Levels for Diagnostic #   222 SIhsnow
(PID.TID 0000.0001) SETDIAG: Allocate  1 x  1 Levels for Diagnostic #    83 sIceLoad
(PID.TID 0000.0001) SETDIAG: Allocate  1 x  1 Levels for Diagnostic #   226 SIuice
(PID.TID 0000.0001) SETDIAG: Allocate  1 x  1 Levels for Diagnostic #   227 SIvice
(PID.TID 0000.0001) SETDIAG: Allocate  1 x  1 Levels for Diagnostic #   228 SItaux
(PID.TID 0000.0001) SETDIAG: Allocate  1 x  1 Levels for Diagnostic #   229 SItauy
(PID.TID 0000.0001) SETDIAG: Allocate  1 x  1 Levels for Diagnostic #   217 SIarea
(PID.TID 0000.0001) SETDIAG: Allocate  1 x  1 Levels for Diagnostic #   220 SIheff
(PID.TID 0000.0001) SETDIAG: Allocate  1 x  1 Levels for Diagnostic #   222 SIhsnow
(PID.TID 0000.0001) SETDIAG: Allocate  1 x  1 Levels for Diagnostic #    83 sIceLoad
(PID.TID 0000.0001) SETDIAG: Allocate  1 x  1 Levels for Diagnostic #   226 SIuice
(PID.TID 0000.0001) SETDIAG: Allocate  1 x  1 Levels for Diagnostic #   227 SIvice
(PID.TID 0000.0001) SETDIAG: Allocate  1 x  1 Levels for Diagnostic #   228 SItaux
(PID.TID 0000.0001) SETDIAG: Allocate  1 x  1 Levels for Diagnostic #   229 SItauy
(PID.TID 0000.0001) SETDIAG: Allocate  1 x  1 Levels for Diagnostic #   290 CPLoWGHT
(PID.TID 0000.0001) SETDIAG: Allocate  5 x  1 Levels for Diagnostic #   288 SIareaN
(PID.TID 0000.0001) SETDIAG: Allocate  5 x  1 Levels for Diagnostic #   287 SIheffN
(PID.TID 0000.0001) SETDIAG: Allocate  5 x  1 Levels for Diagnostic #   289 SIhsnowN
(PID.TID 0000.0001) SETDIAG: Allocate  5 x  1 Levels for Diagnostic #   293 SIqSnow
(PID.TID 0000.0001) SETDIAG: Allocate  5 x  1 Levels for Diagnostic #   294 SImeltPd
(PID.TID 0000.0001) SETDIAG: Allocate  5 x  1 Levels for Diagnostic #   291 SItIces
(PID.TID 0000.0001) SETDIAG: Allocate  5 x  1 Levels for Diagnostic #   295 SIiceAge
(PID.TID 0000.0001) SETDIAG: Allocate  5 x  1 Levels for Diagnostic #   296 SI_dArea
(PID.TID 0000.0001) SETDIAG: Allocate  5 x  1 Levels for Diagnostic #   297 SI_dHeff
(PID.TID 0000.0001) SETDIAG: Allocate  5 x  1 Levels for Diagnostic #   298 SI_dHsnw
(PID.TID 0000.0001) SETDIAG: Allocate  5 x  1 Levels for Diagnostic #   301 SI_dQSnw
(PID.TID 0000.0001) SETDIAG: Allocate 20 x  1 Levels for Diagnostic #   292 SIqIce
(PID.TID 0000.0001) SETDIAG: Allocate 20 x  1 Levels for Diagnostic #   300 SI_dQIce
(PID.TID 0000.0001)   space allocated for all diagnostics:     178 levels
(PID.TID 0000.0001)   set mate pointer for diag #    80  oceTAUX  , Parms: UU      U1 , mate:    81
(PID.TID 0000.0001)   set mate pointer for diag #    81  oceTAUY  , Parms: VV      U1 , mate:    80
(PID.TID 0000.0001)   set mate pointer for diag #    30  UVEL     , Parms: UUR     MR , mate:    31
(PID.TID 0000.0001)   set mate pointer for diag #    31  VVEL     , Parms: VVR     MR , mate:    30
(PID.TID 0000.0001)   set mate pointer for diag #   226  SIuice   , Parms: UU      M1 , mate:   227
(PID.TID 0000.0001)   set mate pointer for diag #   227  SIvice   , Parms: VV      M1 , mate:   226
(PID.TID 0000.0001)   set mate pointer for diag #   228  SItaux   , Parms: UU      U1 , mate:   229
(PID.TID 0000.0001)   set mate pointer for diag #   229  SItauy   , Parms: VV      U1 , mate:   228
(PID.TID 0000.0001)   set mate pointer for diag #   226  SIuice   , Parms: UU      M1 , mate:   227
(PID.TID 0000.0001)   set mate pointer for diag #   227  SIvice   , Parms: VV      M1 , mate:   226
(PID.TID 0000.0001)   set mate pointer for diag #   228  SItaux   , Parms: UU      U1 , mate:   229
(PID.TID 0000.0001)   set mate pointer for diag #   229  SItauy   , Parms: VV      U1 , mate:   228
(PID.TID 0000.0001) DIAGNOSTICS_SET_POINTERS: Set levels for Outp.Stream: surfDiag
(PID.TID 0000.0001)  Levels:       1.
(PID.TID 0000.0001) DIAGNOSTICS_SET_POINTERS: Set levels for Outp.Stream: iceDiag
(PID.TID 0000.0001)  Levels:       1.
(PID.TID 0000.0001) DIAGNOSTICS_SET_POINTERS: Set levels for Outp.Stream: iceInst
(PID.TID 0000.0001)  Levels:       1.
(PID.TID 0000.0001) DIAGNOSTICS_SET_POINTERS: Set levels for Outp.Stream: iceNcat
(PID.TID 0000.0001)  Levels:       1.   2.   3.   4.   5.
(PID.TID 0000.0001) DIAGNOSTICS_SET_POINTERS: Set levels for Outp.Stream: iceEnerg
(PID.TID 0000.0001)  Levels:       1.   2.   3.   4.   5.   6.   7.   8.   9.  10.  11.  12.  13.  14.  15.  16.  17.  18.  19.  20.
(PID.TID 0000.0001) DIAGNOSTICS_SET_POINTERS: done
(PID.TID 0000.0001) ------------------------------------------------------------
(PID.TID 0000.0001) DIAGSTATS_SET_REGIONS: define no region
(PID.TID 0000.0001) ------------------------------------------------------------
(PID.TID 0000.0001) SETDIAG: Allocate  1 Levels for Stats-Diag #   217 SIarea
(PID.TID 0000.0001) SETDIAG: Allocate  1 Levels for Stats-Diag #   220 SIheff
(PID.TID 0000.0001) SETDIAG: Allocate  1 Levels for Stats-Diag #   222 SIhsnow
(PID.TID 0000.0001) SETDIAG: Allocate  1 Levels for Stats-Diag #    83 sIceLoad
(PID.TID 0000.0001) SETDIAG: Allocate  1 Levels for Stats-Diag #   226 SIuice
(PID.TID 0000.0001) SETDIAG: Allocate  1 Levels for Stats-Diag #   227 SIvice
(PID.TID 0000.0001) SETDIAG: Allocate  1 Levels for Stats-Diag #   228 SItaux
(PID.TID 0000.0001) SETDIAG: Allocate  1 Levels for Stats-Diag #   229 SItauy
(PID.TID 0000.0001) SETDIAG: Allocate  5 Levels for Stats-Diag #   288 SIareaN
(PID.TID 0000.0001) SETDIAG: Allocate  5 Levels for Stats-Diag #   287 SIheffN
(PID.TID 0000.0001) SETDIAG: Allocate  5 Levels for Stats-Diag #   289 SIhsnowN
(PID.TID 0000.0001) SETDIAG: Allocate  5 Levels for Stats-Diag #   293 SIqSnow
(PID.TID 0000.0001) SETDIAG: Allocate 20 Levels for Stats-Diag #   292 SIqIce
(PID.TID 0000.0001) SETDIAG: Allocate  5 Levels for Stats-Diag #   294 SImeltPd
(PID.TID 0000.0001) SETDIAG: Allocate  5 Levels for Stats-Diag #   291 SItIces
(PID.TID 0000.0001) SETDIAG: Allocate  5 Levels for Stats-Diag #   295 SIiceAge
(PID.TID 0000.0001) SETDIAG: Allocate  5 Levels for Stats-Diag #   296 SI_dArea
(PID.TID 0000.0001) SETDIAG: Allocate  5 Levels for Stats-Diag #   297 SI_dHeff
(PID.TID 0000.0001) SETDIAG: Allocate  5 Levels for Stats-Diag #   298 SI_dHsnw
(PID.TID 0000.0001) SETDIAG: Allocate  5 Levels for Stats-Diag #   301 SI_dQSnw
(PID.TID 0000.0001) SETDIAG: Allocate 20 Levels for Stats-Diag #   300 SI_dQIce
(PID.TID 0000.0001)   space allocated for all stats-diags:     103 levels
(PID.TID 0000.0001) DIAGSTATS_SET_POINTERS: done
(PID.TID 0000.0001) ------------------------------------------------------------
(PID.TID 0000.0001) DIAGSTATS_INI_IO: open file: iceStDiag.0000072000.txt , unit=    37
(PID.TID 0000.0001) INI_GLOBAL_DOMAIN: Found  19 CS-corner Pts in the domain
(PID.TID 0000.0001) %MON fCori_max                    =   1.4574827780704E-04
(PID.TID 0000.0001) %MON fCori_min                    =  -1.4574827780704E-04
(PID.TID 0000.0001) %MON fCori_mean                   =   0.0000000000000E+00
(PID.TID 0000.0001) %MON fCori_sd                     =   8.4202189509968E-05
(PID.TID 0000.0001) %MON fCoriG_max                   =   1.4584247033981E-04
(PID.TID 0000.0001) %MON fCoriG_min                   =  -1.4584247033981E-04
(PID.TID 0000.0001) %MON fCoriG_mean                  =   2.2587545260115E-21
(PID.TID 0000.0001) %MON fCoriG_sd                    =   8.4202189509968E-05
(PID.TID 0000.0001) %MON fCoriCos_max                 =   1.4580166994612E-04
(PID.TID 0000.0001) %MON fCoriCos_min                 =   5.2407700865903E-06
(PID.TID 0000.0001) %MON fCoriCos_mean                =   1.1514045869113E-04
(PID.TID 0000.0001) %MON fCoriCos_sd                  =   3.0375849106513E-05
(PID.TID 0000.0001) INI_CG2D: CG2D normalisation factor =  1.9156564154949553E-04
(PID.TID 0000.0001) 
(PID.TID 0000.0001) // =======================================================
(PID.TID 0000.0001) // Model configuration
(PID.TID 0000.0001) // =======================================================
(PID.TID 0000.0001) //
(PID.TID 0000.0001) // "Physical" paramters ( PARM01 in namelist )
(PID.TID 0000.0001) //
(PID.TID 0000.0001) buoyancyRelation = /* Type of relation to get Buoyancy */
(PID.TID 0000.0001)               'OCEANIC'
(PID.TID 0000.0001)     ;
(PID.TID 0000.0001) fluidIsAir   =  /* fluid major constituent is Air */
(PID.TID 0000.0001)                   F
(PID.TID 0000.0001)     ;
(PID.TID 0000.0001) fluidIsWater =  /* fluid major constituent is Water */
(PID.TID 0000.0001)                   T
(PID.TID 0000.0001)     ;
(PID.TID 0000.0001) usingPCoords =  /* use p (or p*) vertical coordinate */
(PID.TID 0000.0001)                   F
(PID.TID 0000.0001)     ;
(PID.TID 0000.0001) usingZCoords =  /* use z (or z*) vertical coordinate */
(PID.TID 0000.0001)                   T
(PID.TID 0000.0001)     ;
(PID.TID 0000.0001) tRef =   /* Reference temperature profile ( oC or K ) */
(PID.TID 0000.0001)    15 @  2.000000000000000E+01              /* K =  1: 15 */
(PID.TID 0000.0001)     ;
(PID.TID 0000.0001) sRef =   /* Reference salinity profile ( psu ) */
(PID.TID 0000.0001)    15 @  3.500000000000000E+01              /* K =  1: 15 */
(PID.TID 0000.0001)     ;
(PID.TID 0000.0001) useStrainTensionVisc= /* Use StrainTension Form of Viscous Operator */
(PID.TID 0000.0001)                   F
(PID.TID 0000.0001)     ;
(PID.TID 0000.0001) useVariableVisc = /* Use variable horizontal viscosity */
(PID.TID 0000.0001)                   F
(PID.TID 0000.0001)     ;
(PID.TID 0000.0001) useHarmonicVisc = /* Use harmonic horizontal viscosity */
(PID.TID 0000.0001)                   T
(PID.TID 0000.0001)     ;
(PID.TID 0000.0001) useBiharmonicVisc= /* Use biharmonic horiz.  viscosity */
(PID.TID 0000.0001)                   F
(PID.TID 0000.0001)     ;
(PID.TID 0000.0001) useSmag3D = /* Use isotropic 3-D Smagorinsky viscosity */
(PID.TID 0000.0001)                   F
(PID.TID 0000.0001)     ;
(PID.TID 0000.0001) viscAh  =   /* Lateral harmonic viscosity ( m^2/s ) */
(PID.TID 0000.0001)                 3.000000000000000E+05
(PID.TID 0000.0001)     ;
(PID.TID 0000.0001) viscA4  =   /* Lateral biharmonic viscosity ( m^4/s ) */
(PID.TID 0000.0001)                 0.000000000000000E+00
(PID.TID 0000.0001)     ;
(PID.TID 0000.0001) no_slip_sides =  /* Viscous BCs: No-slip sides */
(PID.TID 0000.0001)                   T
(PID.TID 0000.0001)     ;
(PID.TID 0000.0001) sideDragFactor = /* side-drag scaling factor (non-dim) */
(PID.TID 0000.0001)                 2.000000000000000E+00
(PID.TID 0000.0001)     ;
(PID.TID 0000.0001) viscArNr = /* vertical profile of vertical viscosity ( m^2/s )*/
(PID.TID 0000.0001)    15 @  1.000000000000000E-03              /* K =  1: 15 */
(PID.TID 0000.0001)     ;
(PID.TID 0000.0001) no_slip_bottom =  /* Viscous BCs: No-slip bottom */
(PID.TID 0000.0001)                   T
(PID.TID 0000.0001)     ;
(PID.TID 0000.0001) bottomVisc_pCell = /* Partial-cell in bottom Visc. BC */
(PID.TID 0000.0001)                   F
(PID.TID 0000.0001)     ;
(PID.TID 0000.0001) bottomDragLinear = /* linear bottom-drag coefficient ( m/s ) */
(PID.TID 0000.0001)                 0.000000000000000E+00
(PID.TID 0000.0001)     ;
(PID.TID 0000.0001) bottomDragQuadratic = /* quadratic bottom-drag coefficient (-) */
(PID.TID 0000.0001)                 0.000000000000000E+00
(PID.TID 0000.0001)     ;
(PID.TID 0000.0001) selectBotDragQuadr = /* select quadratic bottom drag options */
(PID.TID 0000.0001)                      -1
(PID.TID 0000.0001)     ;
(PID.TID 0000.0001) diffKhT =   /* Laplacian diffusion of heat laterally ( m^2/s ) */
(PID.TID 0000.0001)                 0.000000000000000E+00
(PID.TID 0000.0001)     ;
(PID.TID 0000.0001) diffK4T =   /* Biharmonic diffusion of heat laterally ( m^4/s ) */
(PID.TID 0000.0001)                 0.000000000000000E+00
(PID.TID 0000.0001)     ;
(PID.TID 0000.0001) diffKhS =   /* Laplacian diffusion of salt laterally ( m^2/s ) */
(PID.TID 0000.0001)                 0.000000000000000E+00
(PID.TID 0000.0001)     ;
(PID.TID 0000.0001) diffK4S =   /* Biharmonic diffusion of salt laterally ( m^4/s ) */
(PID.TID 0000.0001)                 0.000000000000000E+00
(PID.TID 0000.0001)     ;
(PID.TID 0000.0001) diffKrNrT = /* vertical profile of vertical diffusion of Temp ( m^2/s )*/
(PID.TID 0000.0001)    15 @  3.000000000000000E-05              /* K =  1: 15 */
(PID.TID 0000.0001)     ;
(PID.TID 0000.0001) diffKrNrS = /* vertical profile of vertical diffusion of Salt ( m^2/s )*/
(PID.TID 0000.0001)    15 @  3.000000000000000E-05              /* K =  1: 15 */
(PID.TID 0000.0001)     ;
(PID.TID 0000.0001) diffKrBL79surf = /* Surface diffusion for Bryan and Lewis 79 ( m^2/s ) */
(PID.TID 0000.0001)                 0.000000000000000E+00
(PID.TID 0000.0001)     ;
(PID.TID 0000.0001) diffKrBL79deep = /* Deep diffusion for Bryan and Lewis 1979 ( m^2/s ) */
(PID.TID 0000.0001)                 0.000000000000000E+00
(PID.TID 0000.0001)     ;
(PID.TID 0000.0001) diffKrBL79scl = /* Depth scale for Bryan and Lewis 1979 ( m ) */
(PID.TID 0000.0001)                 2.000000000000000E+02
(PID.TID 0000.0001)     ;
(PID.TID 0000.0001) diffKrBL79Ho = /* Turning depth for Bryan and Lewis 1979 ( m ) */
(PID.TID 0000.0001)                -2.000000000000000E+03
(PID.TID 0000.0001)     ;
(PID.TID 0000.0001) ivdc_kappa = /* Implicit Vertical Diffusivity for Convection ( m^2/s) */
(PID.TID 0000.0001)                 1.000000000000000E+01
(PID.TID 0000.0001)     ;
(PID.TID 0000.0001) hMixCriteria=  /* Criteria for mixed-layer diagnostic */
(PID.TID 0000.0001)                -8.000000000000000E-01
(PID.TID 0000.0001)     ;
(PID.TID 0000.0001) dRhoSmall =  /* Parameter for mixed-layer diagnostic */
(PID.TID 0000.0001)                 1.000000000000000E-06
(PID.TID 0000.0001)     ;
(PID.TID 0000.0001) hMixSmooth=  /* Smoothing parameter for mixed-layer diagnostic */
(PID.TID 0000.0001)                 0.000000000000000E+00
(PID.TID 0000.0001)     ;
(PID.TID 0000.0001) eosType =  /* Type of Equation of State */
(PID.TID 0000.0001)               'JMD95Z'
(PID.TID 0000.0001)     ;
(PID.TID 0000.0001) selectP_inEOS_Zc = /* select pressure to use in EOS (0,1,2,3) */
(PID.TID 0000.0001)                       0
(PID.TID 0000.0001)     0= -g*rhoConst*z ; 1= pRef (from tRef,sRef); 2= Hyd P ; 3= Hyd+NH P
(PID.TID 0000.0001)     ;
(PID.TID 0000.0001) HeatCapacity_Cp =  /* Specific heat capacity ( J/kg/K ) */
(PID.TID 0000.0001)                 3.994000000000000E+03
(PID.TID 0000.0001)     ;
(PID.TID 0000.0001) celsius2K = /* 0 degree Celsius converted to Kelvin ( K ) */
(PID.TID 0000.0001)                 2.731500000000000E+02
(PID.TID 0000.0001)     ;
(PID.TID 0000.0001) rhoConst  = /* Reference density (Boussinesq)  ( kg/m^3 ) */
(PID.TID 0000.0001)                 1.035000000000000E+03
(PID.TID 0000.0001)     ;
(PID.TID 0000.0001) rhoFacC = /* normalized Reference density @ cell-Center (-) */
(PID.TID 0000.0001)    15 @  1.000000000000000E+00              /* K =  1: 15 */
(PID.TID 0000.0001)     ;
(PID.TID 0000.0001) rhoFacF = /* normalized Reference density @ W-Interface (-) */
(PID.TID 0000.0001)    16 @  1.000000000000000E+00              /* K =  1: 16 */
(PID.TID 0000.0001)     ;
(PID.TID 0000.0001) rhoConstFresh = /* Fresh-water reference density ( kg/m^3 ) */
(PID.TID 0000.0001)                 1.000000000000000E+03
(PID.TID 0000.0001)     ;
(PID.TID 0000.0001) gravity =   /* Gravitational acceleration ( m/s^2 ) */
(PID.TID 0000.0001)                 9.810000000000000E+00
(PID.TID 0000.0001)     ;
(PID.TID 0000.0001) gBaro =   /* Barotropic gravity ( m/s^2 ) */
(PID.TID 0000.0001)                 9.810000000000000E+00
(PID.TID 0000.0001)     ;
(PID.TID 0000.0001) gravFacC = /* gravity factor (vs surf.) @ cell-Center (-) */
(PID.TID 0000.0001)    15 @  1.000000000000000E+00              /* K =  1: 15 */
(PID.TID 0000.0001)     ;
(PID.TID 0000.0001) gravFacF = /* gravity factor (vs surf.) @ W-Interface (-) */
(PID.TID 0000.0001)    16 @  1.000000000000000E+00              /* K =  1: 16 */
(PID.TID 0000.0001)     ;
(PID.TID 0000.0001) rotationPeriod =   /* Rotation Period ( s ) */
(PID.TID 0000.0001)                 8.616400000000000E+04
(PID.TID 0000.0001)     ;
(PID.TID 0000.0001) omega =   /* Angular velocity ( rad/s ) */
(PID.TID 0000.0001)                 7.292123516990375E-05
(PID.TID 0000.0001)     ;
(PID.TID 0000.0001) f0 =   /* Reference coriolis parameter ( 1/s ) */
(PID.TID 0000.0001)                 1.000000000000000E-04
(PID.TID 0000.0001)     ;
(PID.TID 0000.0001) beta =   /* Beta ( 1/(m.s) ) */
(PID.TID 0000.0001)                 9.999999999999999E-12
(PID.TID 0000.0001)     ;
(PID.TID 0000.0001) fPrime =   /* Second coriolis parameter ( 1/s ) */
(PID.TID 0000.0001)                 0.000000000000000E+00
(PID.TID 0000.0001)     ;
(PID.TID 0000.0001) rigidLid =   /* Rigid lid on/off flag */
(PID.TID 0000.0001)                   F
(PID.TID 0000.0001)     ;
(PID.TID 0000.0001) implicitFreeSurface =   /* Implicit free surface on/off flag */
(PID.TID 0000.0001)                   T
(PID.TID 0000.0001)     ;
(PID.TID 0000.0001) freeSurfFac =   /* Implicit free surface factor */
(PID.TID 0000.0001)                 1.000000000000000E+00
(PID.TID 0000.0001)     ;
(PID.TID 0000.0001) implicSurfPress =  /* Surface Pressure implicit factor (0-1)*/
(PID.TID 0000.0001)                 1.000000000000000E+00
(PID.TID 0000.0001)     ;
(PID.TID 0000.0001) implicDiv2DFlow =  /* Barot. Flow Div. implicit factor (0-1)*/
(PID.TID 0000.0001)                 1.000000000000000E+00
(PID.TID 0000.0001)     ;
(PID.TID 0000.0001) uniformLin_PhiSurf = /* use uniform Bo_surf on/off flag*/
(PID.TID 0000.0001)                   T
(PID.TID 0000.0001)     ;
(PID.TID 0000.0001) uniformFreeSurfLev = /* free-surface level-index is uniform */
(PID.TID 0000.0001)                   T
(PID.TID 0000.0001)     ;
(PID.TID 0000.0001) hFacMin =   /* minimum partial cell factor (hFac) */
(PID.TID 0000.0001)                 1.000000000000000E-01
(PID.TID 0000.0001)     ;
(PID.TID 0000.0001) hFacMinDr = /* minimum partial cell thickness ( m) */
(PID.TID 0000.0001)                 2.000000000000000E+01
(PID.TID 0000.0001)     ;
(PID.TID 0000.0001) exactConserv =  /* Exact Volume Conservation on/off flag*/
(PID.TID 0000.0001)                   T
(PID.TID 0000.0001)     ;
(PID.TID 0000.0001) linFSConserveTr = /* Tracer correction for Lin Free Surface on/off flag*/
(PID.TID 0000.0001)                   F
(PID.TID 0000.0001)     ;
(PID.TID 0000.0001) nonlinFreeSurf = /* Non-linear Free Surf. options (-1,0,1,2,3)*/
(PID.TID 0000.0001)                       4
(PID.TID 0000.0001)      -1,0= Off ; 1,2,3= On, 2=+rescale gU,gV, 3=+update cg2d solv.
(PID.TID 0000.0001)     ;
(PID.TID 0000.0001) hFacInf =   /* lower threshold for hFac (nonlinFreeSurf only)*/
(PID.TID 0000.0001)                 2.000000000000000E-01
(PID.TID 0000.0001)     ;
(PID.TID 0000.0001) hFacSup =   /* upper threshold for hFac (nonlinFreeSurf only)*/
(PID.TID 0000.0001)                 2.000000000000000E+00
(PID.TID 0000.0001)     ;
(PID.TID 0000.0001) select_rStar = /* r* Vertical coord. options (=0 r coord.; >0 uses r*)*/
[...]
(PID.TID 0000.0001) %MON forcing_empmr_min            =  -3.7807577848434E-01
(PID.TID 0000.0001) %MON forcing_empmr_mean           =  -5.4748708880091E-04
(PID.TID 0000.0001) %MON forcing_empmr_sd             =   9.2728393683593E-03
(PID.TID 0000.0001) %MON forcing_empmr_del2           =   3.7175253137844E-04
(PID.TID 0000.0001) %MON forcing_fu_max               =   6.3678320712355E-01
(PID.TID 0000.0001) %MON forcing_fu_min               =  -4.1476076539903E-01
(PID.TID 0000.0001) %MON forcing_fu_mean              =  -4.7374202655242E-03
(PID.TID 0000.0001) %MON forcing_fu_sd                =   7.5582534863602E-02
(PID.TID 0000.0001) %MON forcing_fu_del2              =   7.7465192535943E-04
(PID.TID 0000.0001) %MON forcing_fv_max               =   3.6444849593917E-01
(PID.TID 0000.0001) %MON forcing_fv_min               =  -6.6535789740092E-01
(PID.TID 0000.0001) %MON forcing_fv_mean              =  -1.3979050092392E-02
(PID.TID 0000.0001) %MON forcing_fv_sd                =   7.4066630378925E-02
(PID.TID 0000.0001) %MON forcing_fv_del2              =   6.9037530938445E-04
(PID.TID 0000.0001) %MON trAdv_CFL_u_max              =   5.1399377557023E-03
(PID.TID 0000.0001) %MON trAdv_CFL_v_max              =   7.4262064986018E-03
(PID.TID 0000.0001) %MON trAdv_CFL_w_max              =   6.8562595314390E-03
(PID.TID 0000.0001) %MON advcfl_uvel_max              =   5.3834448402083E-03
(PID.TID 0000.0001) %MON advcfl_vvel_max              =   4.1876858881085E-03
(PID.TID 0000.0001) %MON advcfl_wvel_max              =   1.3150461860325E-02
(PID.TID 0000.0001) %MON advcfl_W_hf_max              =   6.8562595314390E-03
(PID.TID 0000.0001) %MON pe_b_mean                    =   5.1746856341725E-04
(PID.TID 0000.0001) %MON ke_max                       =   1.2419516290862E+00
(PID.TID 0000.0001) %MON ke_mean                      =   1.7768409986321E-04
(PID.TID 0000.0001) %MON ke_vol                       =   1.3398065782521E+18
(PID.TID 0000.0001) %MON vort_r_min                   =  -4.6043871744095E-06
(PID.TID 0000.0001) %MON vort_r_max                   =   4.2502710595940E-06
(PID.TID 0000.0001) %MON vort_a_mean                  =  -2.0549865324846E-05
(PID.TID 0000.0001) %MON vort_a_sd                    =   7.5259528357093E-05
(PID.TID 0000.0001) %MON vort_p_mean                  =  -2.4783406150067E-05
(PID.TID 0000.0001) %MON vort_p_sd                    =   1.2811939661316E-04
(PID.TID 0000.0001) %MON surfExpan_theta_mean         =  -7.8876464762399E-06
(PID.TID 0000.0001) %MON surfExpan_salt_mean          =   1.1912489741106E-06
(PID.TID 0000.0001) // =======================================================
(PID.TID 0000.0001) // End MONITOR dynamic field statistics
(PID.TID 0000.0001) // =======================================================
(PID.TID 0000.0001) // =======================================================
(PID.TID 0000.0001) // Begin MONITOR SEAICE statistics
(PID.TID 0000.0001) // =======================================================
(PID.TID 0000.0001) %MON seaice_tsnumber              =                 72007
(PID.TID 0000.0001) %MON seaice_time_sec              =   6.4806300000000E+07
(PID.TID 0000.0001) %MON seaice_uice_max              =   2.4634941791058E-01
(PID.TID 0000.0001) %MON seaice_uice_min              =  -2.8307377324163E-01
(PID.TID 0000.0001) %MON seaice_uice_mean             =  -3.5524673172275E-03
(PID.TID 0000.0001) %MON seaice_uice_sd               =   4.7577066647585E-02
(PID.TID 0000.0001) %MON seaice_uice_del2             =   7.7922736420397E-04
(PID.TID 0000.0001) %MON seaice_vice_max              =   2.3151993251569E-01
(PID.TID 0000.0001) %MON seaice_vice_min              =  -2.3246612804663E-01
(PID.TID 0000.0001) %MON seaice_vice_mean             =  -8.1233484492418E-03
(PID.TID 0000.0001) %MON seaice_vice_sd               =   4.9795479082947E-02
(PID.TID 0000.0001) %MON seaice_vice_del2             =   7.0068981878719E-04
(PID.TID 0000.0001) %MON seaice_area_max              =   1.0000108093825E+00
(PID.TID 0000.0001) %MON seaice_area_min              =   0.0000000000000E+00
(PID.TID 0000.0001) %MON seaice_area_mean             =   3.8912945586003E-02
(PID.TID 0000.0001) %MON seaice_area_sd               =   1.7795453743193E-01
(PID.TID 0000.0001) %MON seaice_area_del2             =   3.6322186397419E-03
(PID.TID 0000.0001) %MON seaice_heff_max              =   8.0448063717171E+00
(PID.TID 0000.0001) %MON seaice_heff_min              =   0.0000000000000E+00
(PID.TID 0000.0001) %MON seaice_heff_mean             =   1.1850501244928E-01
(PID.TID 0000.0001) %MON seaice_heff_sd               =   7.7193235560586E-01
(PID.TID 0000.0001) %MON seaice_heff_del2             =   1.2114240952335E-02
(PID.TID 0000.0001) %MON seaice_hsnow_max             =   1.3368309329166E+00
(PID.TID 0000.0001) %MON seaice_hsnow_min             =   0.0000000000000E+00
(PID.TID 0000.0001) %MON seaice_hsnow_mean            =   1.2684375476326E-02
(PID.TID 0000.0001) %MON seaice_hsnow_sd              =   8.4849841363920E-02
(PID.TID 0000.0001) %MON seaice_hsnow_del2            =   1.4529878139094E-03
(PID.TID 0000.0001) // =======================================================
(PID.TID 0000.0001) // End MONITOR SEAICE statistics
(PID.TID 0000.0001) // =======================================================
 SEAICE_LSR: Residual Initial ipass,Uice,Vice=    1  1.01920813E-02  1.16349087E-02
 SEAICE_LSR (ipass=   1) iters,dU,Resid=    10  3.73489016E-05  1.35641299E-04
 SEAICE_LSR (ipass=   1) iters,dV,Resid=    10  7.80215177E-05  7.37053496E-05
 SEAICE_LSR: Residual Initial ipass,Uice,Vice=    2  9.59905387E-03  1.04838669E-02
 SEAICE_LSR (ipass=   2) iters,dU,Resid=     8  6.00629895E-05  2.21657236E-04
 SEAICE_LSR (ipass=   2) iters,dV,Resid=     8  7.98118374E-05  1.59255944E-04
 cg2d: Sum(rhs),rhsMax =  -9.64914487019914E+00  1.09671130205779E+02
(PID.TID 0000.0001)      cg2d_init_res =   3.07340474600917E-01
(PID.TID 0000.0001)      cg2d_iters(min,last) =      -1       9
(PID.TID 0000.0001)      cg2d_last_res =   9.27526667370046E-08
(PID.TID 0000.0001) // =======================================================
(PID.TID 0000.0001) // Begin MONITOR dynamic field statistics
(PID.TID 0000.0001) // =======================================================
(PID.TID 0000.0001) %MON time_tsnumber                =                 72008
(PID.TID 0000.0001) %MON time_secondsf                =   6.4807200000000E+07
(PID.TID 0000.0001) %MON dynstat_eta_max              =   5.1450175179299E+00
(PID.TID 0000.0001) %MON dynstat_eta_min              =  -2.6957303860450E+00
(PID.TID 0000.0001) %MON dynstat_eta_mean             =   1.2296522793687E-02
(PID.TID 0000.0001) %MON dynstat_eta_sd               =   6.1983658306986E-01
(PID.TID 0000.0001) %MON dynstat_eta_del2             =   3.4850985301216E-03
(PID.TID 0000.0001) %MON dynstat_uvel_max             =   1.7458150355178E+00
(PID.TID 0000.0001) %MON dynstat_uvel_min             =  -8.4678684908516E-01
(PID.TID 0000.0001) %MON dynstat_uvel_mean            =  -2.7539071675970E-04
(PID.TID 0000.0001) %MON dynstat_uvel_sd              =   1.3792567084564E-02
(PID.TID 0000.0001) %MON dynstat_uvel_del2            =   1.3808831631672E-04
(PID.TID 0000.0001) %MON dynstat_vvel_max             =   1.3509613198116E+00
(PID.TID 0000.0001) %MON dynstat_vvel_min             =  -1.4978405368462E+00
(PID.TID 0000.0001) %MON dynstat_vvel_mean            =  -3.8296106104157E-04
(PID.TID 0000.0001) %MON dynstat_vvel_sd              =   1.4212832570377E-02
(PID.TID 0000.0001) %MON dynstat_vvel_del2            =   1.8712390267510E-04
(PID.TID 0000.0001) %MON dynstat_wvel_max             =   1.0515860094645E-04
(PID.TID 0000.0001) %MON dynstat_wvel_min             =  -5.5034500288613E-04
(PID.TID 0000.0001) %MON dynstat_wvel_mean            =  -4.5301136484136E-07
(PID.TID 0000.0001) %MON dynstat_wvel_sd              =   9.3296698265024E-06
(PID.TID 0000.0001) %MON dynstat_wvel_del2            =   8.6531443117472E-08
(PID.TID 0000.0001) %MON dynstat_theta_max            =   3.0924128061827E+01
(PID.TID 0000.0001) %MON dynstat_theta_min            =  -3.0122108027464E+00
(PID.TID 0000.0001) %MON dynstat_theta_mean           =   3.9089999236425E+00
(PID.TID 0000.0001) %MON dynstat_theta_sd             =   4.5708645122609E+00
(PID.TID 0000.0001) %MON dynstat_theta_del2           =   2.6510346292846E-03
(PID.TID 0000.0001) %MON dynstat_salt_max             =   4.1372762739578E+01
(PID.TID 0000.0001) %MON dynstat_salt_min             =   1.8518452017040E+01
(PID.TID 0000.0001) %MON dynstat_salt_mean            =   3.4772148766067E+01
(PID.TID 0000.0001) %MON dynstat_salt_sd              =   5.3101826437091E-01
(PID.TID 0000.0001) %MON dynstat_salt_del2            =   8.1567468203399E-04
(PID.TID 0000.0001) %MON dynstat_sst_max              =   3.0924128061827E+01
(PID.TID 0000.0001) %MON dynstat_sst_min              =  -1.9454397349435E+00
(PID.TID 0000.0001) %MON dynstat_sst_mean             =   1.8102880494540E+01
(PID.TID 0000.0001) %MON dynstat_sst_sd               =   9.8032451828040E+00
(PID.TID 0000.0001) %MON dynstat_sst_del2             =   1.5236113098634E-02
(PID.TID 0000.0001) %MON dynstat_sss_max              =   4.1372762739578E+01
(PID.TID 0000.0001) %MON dynstat_sss_min              =   1.8751384501592E+01
(PID.TID 0000.0001) %MON dynstat_sss_mean             =   3.4638489317960E+01
(PID.TID 0000.0001) %MON dynstat_sss_sd               =   1.4590572368950E+00
(PID.TID 0000.0001) %MON dynstat_sss_del2             =   8.2148071545776E-03
(PID.TID 0000.0001) %MON forcing_qnet_max             =   1.4309310546875E+04
(PID.TID 0000.0001) %MON forcing_qnet_min             =  -1.2434758789062E+04
(PID.TID 0000.0001) %MON forcing_qnet_mean            =  -1.4232213326908E+02
(PID.TID 0000.0001) %MON forcing_qnet_sd              =   7.0265919482539E+02
(PID.TID 0000.0001) %MON forcing_qnet_del2            =   2.2581490029146E+01
(PID.TID 0000.0001) %MON forcing_qsw_max              =   0.0000000000000E+00
(PID.TID 0000.0001) %MON forcing_qsw_min              =  -1.0525930130125E+02
(PID.TID 0000.0001) %MON forcing_qsw_mean             =  -2.2001862937571E+01
(PID.TID 0000.0001) %MON forcing_qsw_sd               =   2.9953002057464E+01
(PID.TID 0000.0001) %MON forcing_qsw_del2             =   1.6049322393207E-01
(PID.TID 0000.0001) %MON forcing_empmr_max            =   4.1822526603937E-02
(PID.TID 0000.0001) %MON forcing_empmr_min            =  -3.2982143759727E-01
(PID.TID 0000.0001) %MON forcing_empmr_mean           =  -5.3224472529988E-04
(PID.TID 0000.0001) %MON forcing_empmr_sd             =   8.7289985967306E-03
(PID.TID 0000.0001) %MON forcing_empmr_del2           =   3.5175658801032E-04
(PID.TID 0000.0001) %MON forcing_fu_max               =   6.5955479943582E-01
(PID.TID 0000.0001) %MON forcing_fu_min               =  -3.9704103209794E-01
(PID.TID 0000.0001) %MON forcing_fu_mean              =  -4.7293403644922E-03
(PID.TID 0000.0001) %MON forcing_fu_sd                =   7.5558377536117E-02
(PID.TID 0000.0001) %MON forcing_fu_del2              =   7.7539886757742E-04
(PID.TID 0000.0001) %MON forcing_fv_max               =   3.5895440633944E-01
(PID.TID 0000.0001) %MON forcing_fv_min               =  -7.6592729472392E-01
(PID.TID 0000.0001) %MON forcing_fv_mean              =  -1.3913850050255E-02
(PID.TID 0000.0001) %MON forcing_fv_sd                =   7.4422811366047E-02
(PID.TID 0000.0001) %MON forcing_fv_del2              =   7.0330245264138E-04
(PID.TID 0000.0001) %MON trAdv_CFL_u_max              =   5.5873521963665E-03
(PID.TID 0000.0001) %MON trAdv_CFL_v_max              =   7.9941452373742E-03
(PID.TID 0000.0001) %MON trAdv_CFL_w_max              =   7.0575716355391E-03
(PID.TID 0000.0001) %MON advcfl_uvel_max              =   5.8218857277840E-03
(PID.TID 0000.0001) %MON advcfl_vvel_max              =   4.4886827016119E-03
(PID.TID 0000.0001) %MON advcfl_wvel_max              =   1.1472050003383E-02
(PID.TID 0000.0001) %MON advcfl_W_hf_max              =   7.0575716355391E-03
(PID.TID 0000.0001) %MON pe_b_mean                    =   5.1202170793302E-04
(PID.TID 0000.0001) %MON ke_max                       =   1.4347366519303E+00
(PID.TID 0000.0001) %MON ke_mean                      =   1.8121437078608E-04
(PID.TID 0000.0001) %MON ke_vol                       =   1.3398067514897E+18
(PID.TID 0000.0001) %MON vort_r_min                   =  -4.9438783314109E-06
(PID.TID 0000.0001) %MON vort_r_max                   =   4.4120702882500E-06
(PID.TID 0000.0001) %MON vort_a_mean                  =  -2.0549865324846E-05
(PID.TID 0000.0001) %MON vort_a_sd                    =   7.5259527951693E-05
(PID.TID 0000.0001) %MON vort_p_mean                  =  -2.4783401531307E-05
(PID.TID 0000.0001) %MON vort_p_sd                    =   1.2811934344716E-04
(PID.TID 0000.0001) %MON surfExpan_theta_mean         =  -7.9257412368793E-06
(PID.TID 0000.0001) %MON surfExpan_salt_mean          =   1.2976511518101E-06
(PID.TID 0000.0001) // =======================================================
(PID.TID 0000.0001) // End MONITOR dynamic field statistics
(PID.TID 0000.0001) // =======================================================
(PID.TID 0000.0001) // =======================================================
(PID.TID 0000.0001) // Begin MONITOR SEAICE statistics
(PID.TID 0000.0001) // =======================================================
(PID.TID 0000.0001) %MON seaice_tsnumber              =                 72008
(PID.TID 0000.0001) %MON seaice_time_sec              =   6.4807200000000E+07
(PID.TID 0000.0001) %MON seaice_uice_max              =   2.4847296830170E-01
(PID.TID 0000.0001) %MON seaice_uice_min              =  -2.8228497551215E-01
(PID.TID 0000.0001) %MON seaice_uice_mean             =  -3.4377173120333E-03
(PID.TID 0000.0001) %MON seaice_uice_sd               =   4.7624804570195E-02
(PID.TID 0000.0001) %MON seaice_uice_del2             =   7.8502028531181E-04
(PID.TID 0000.0001) %MON seaice_vice_max              =   2.2736421459484E-01
(PID.TID 0000.0001) %MON seaice_vice_min              =  -2.3588553157793E-01
(PID.TID 0000.0001) %MON seaice_vice_mean             =  -8.1685629365445E-03
(PID.TID 0000.0001) %MON seaice_vice_sd               =   4.9816211362339E-02
(PID.TID 0000.0001) %MON seaice_vice_del2             =   7.0246234867898E-04
(PID.TID 0000.0001) %MON seaice_area_max              =   1.0000121280511E+00
(PID.TID 0000.0001) %MON seaice_area_min              =   0.0000000000000E+00
(PID.TID 0000.0001) %MON seaice_area_mean             =   3.8912626507057E-02
(PID.TID 0000.0001) %MON seaice_area_sd               =   1.7795797677682E-01
(PID.TID 0000.0001) %MON seaice_area_del2             =   3.6325054698300E-03
(PID.TID 0000.0001) %MON seaice_heff_max              =   8.0476585386227E+00
(PID.TID 0000.0001) %MON seaice_heff_min              =   0.0000000000000E+00
(PID.TID 0000.0001) %MON seaice_heff_mean             =   1.1851610540182E-01
(PID.TID 0000.0001) %MON seaice_heff_sd               =   7.7202863168029E-01
(PID.TID 0000.0001) %MON seaice_heff_del2             =   1.2115432239614E-02
(PID.TID 0000.0001) %MON seaice_hsnow_max             =   1.3368380550450E+00
(PID.TID 0000.0001) %MON seaice_hsnow_min             =   0.0000000000000E+00
(PID.TID 0000.0001) %MON seaice_hsnow_mean            =   1.2684296922266E-02
(PID.TID 0000.0001) %MON seaice_hsnow_sd              =   8.4848599637805E-02
(PID.TID 0000.0001) %MON seaice_hsnow_del2            =   1.4528695946440E-03
(PID.TID 0000.0001) // =======================================================
(PID.TID 0000.0001) // End MONITOR SEAICE statistics
(PID.TID 0000.0001) // =======================================================
 Computing Diagnostic #     86  oceQnet      Counter:       8   Parms: SM      U1      
 Computing Diagnostic #     87  oceQsw       Counter:       8   Parms: SM      U1      
 Computing Diagnostic #     84  oceFWflx     Counter:       8   Parms: SM      U1      
 Computing Diagnostic #     85  oceSflux     Counter:       8   Parms: SM      U1      
 Computing Diagnostic #     80  oceTAUX      Counter:       8   Parms: UU      U1      
           Vector  Mate for  oceTAUX      Diagnostic #     81  oceTAUY  exists 
 Computing Diagnostic #     81  oceTAUY      Counter:       8   Parms: VV      U1      
           Vector  Mate for  oceTAUY      Diagnostic #     80  oceTAUX  exists 
 Computing Diagnostic #     26  THETA        Counter:       8   Parms: SMR     MR      
 Computing Diagnostic #     27  SALT         Counter:       8   Parms: SMR     MR      
 Computing Diagnostic #     30  UVEL         Counter:       8   Parms: UUR     MR      
           Vector  Mate for  UVEL         Diagnostic #     31  VVEL     exists 
 Computing Diagnostic #     31  VVEL         Counter:       8   Parms: VVR     MR      
           Vector  Mate for  VVEL         Diagnostic #     30  UVEL     exists 
 Computing Diagnostic #    217  SIarea       Counter:       8   Parms: SM      M1      
 Computing Diagnostic #    220  SIheff       Counter:       8   Parms: SM      M1      
 Computing Diagnostic #    222  SIhsnow      Counter:       8   Parms: SM      M1      
 Computing Diagnostic #     83  sIceLoad     Counter:       8   Parms: SM      U1      
 Computing Diagnostic #    226  SIuice       Counter:       8   Parms: UU      M1      
           Vector  Mate for  SIuice       Diagnostic #    227  SIvice   exists 
 Computing Diagnostic #    227  SIvice       Counter:       8   Parms: VV      M1      
           Vector  Mate for  SIvice       Diagnostic #    226  SIuice   exists 
 Computing Diagnostic #    228  SItaux       Counter:       8   Parms: UU      U1      
           Vector  Mate for  SItaux       Diagnostic #    229  SItauy   exists 
 Computing Diagnostic #    229  SItauy       Counter:       8   Parms: VV      U1      
           Vector  Mate for  SItauy       Diagnostic #    228  SItaux   exists 
 Compute Stats, Diag. #    217  SIarea    vol(   0 ): 1.456E+15  Parms: SM      M1      
 Compute Stats, Diag. #    220  SIheff    vol(   0 ): 1.456E+15  Parms: SM      M1      
 Compute Stats, Diag. #    222  SIhsnow   vol(   0 ): 1.456E+15  Parms: SM      M1      
 Compute Stats, Diag. #     83  sIceLoad  vol(   0 ): 1.456E+15  Parms: SM      U1      
 Compute Stats, Diag. #    226  SIuice    vol(   0 ): 1.383E+15  Parms: UU      M1      
 Compute Stats, Diag. #    227  SIvice    vol(   0 ): 1.391E+15  Parms: VV      M1      
 Compute Stats, Diag. #    228  SItaux    vol(   0 ): 1.383E+15  Parms: UU      U1      
 Compute Stats, Diag. #    229  SItauy    vol(   0 ): 1.391E+15  Parms: VV      U1      
 Compute Stats, Diag. #    288  SIareaN   vol(   0 ): 7.278E+15  Parms: SM      MX      
 Compute Stats, Diag. #    287  SIheffN   vol(   0 ): 7.278E+15  Parms: SM      MX      
 Compute Stats, Diag. #    289  SIhsnowN  vol(   0 ): 7.278E+15  Parms: SM      MX      
 Compute Stats, Diag. #    293  SIqSnow   vol(   0 ): 7.278E+15  Parms: SM      MX      
 Compute Stats, Diag. #    292  SIqIce    vol(   0 ): 2.911E+16  Parms: SM      MX      
 Compute Stats, Diag. #    294  SImeltPd  vol(   0 ): 7.278E+15  Parms: SM      MX      
 Compute Stats, Diag. #    291  SItIces   vol(   0 ): 7.278E+15  Parms: SM      MX      
 Compute Stats, Diag. #    295  SIiceAge  vol(   0 ): 7.278E+15  Parms: SM      MX      
 Compute Stats, Diag. #    296  SI_dArea  vol(   0 ): 7.278E+15  Parms: SM      MX      
 Compute Stats, Diag. #    297  SI_dHeff  vol(   0 ): 7.278E+15  Parms: SM      MX      
 Compute Stats, Diag. #    298  SI_dHsnw  vol(   0 ): 7.278E+15  Parms: SM      MX      
 Compute Stats, Diag. #    301  SI_dQSnw  vol(   0 ): 7.278E+15  Parms: SM      MX      
 Compute Stats, Diag. #    300  SI_dQIce  vol(   0 ): 2.911E+16  Parms: SM      MX      
(PID.TID 0000.0001) DIAGSTATS_CLOSE_IO: close file: iceStDiag.0000072000.txt , unit=    37
(PID.TID 0000.0001) %CHECKPOINT     72008 ckptA
